%nprocshared=12
%mem=48GB
# external="~/scripts/MiMe -H 'hf def2svp' -EF 'wb97xd def2svp' -c 12 -m 48GB" opt=(calcall,ts,noeigen,maxcycles=50,maxstep=10,nomicro) 

 TS-68_hfm.out

0  1
C          -0.79635         0.06943         0.15429
C          -1.99765         0.73988         0.50794
O          -2.16384         1.96060         0.43536
C           0.29385         0.85166        -0.37755
C          -1.03446         1.30322        -2.54940
H          -0.89621         1.68951        -3.56671
H          -1.72811         0.45576        -2.55954
H          -1.44694         2.06987        -1.88063
N           0.26460         0.84490        -2.00521
H           0.42402        -0.13245        -2.26859
H           1.05333         1.38427        -2.37271
C           1.72393         0.54972         0.01030
C           2.45762        -0.52277        -0.51081
C           3.76642        -0.76039        -0.09144
C           4.35903         0.06530         0.86076
C           3.63461         1.13216         1.39227
C           2.33141         1.37268         0.96664
H           2.00527        -1.21181        -1.22854
H           4.32038        -1.60579        -0.50515
H           5.38228        -0.12417         1.19176
H           4.08818         1.78343         2.14247
H           1.76522         2.20600         1.39053
H           0.05366         1.90005        -0.15130
Br         -0.72721        -1.82578        -0.04811
O          -2.99010        -0.06821         0.94814
C          -4.18400         0.57269         1.32992
H          -4.87576        -0.22182         1.63697
H          -4.01966         1.26730         2.16808
H          -4.62054         1.14711         0.49797

