%chk=mikami_OPLS3e_1_opt.chk
%nprocshared=12
%mem=48GB
# m062x 6-31g(d) scrf=(iefpcm,solvent=benzene) opt=(maxcycles=50,maxstep=10)

 Structure3

0  1
C           1.05850        -0.52000         1.62770
C           1.74010         0.19510         2.60850
C           2.98510         0.74710         2.32150
C           3.55110         0.59470         1.05930
C           2.86730        -0.11640         0.07740
C           1.61750        -0.68900         0.35070
H           0.09130        -0.93230         1.87690
H           1.30160         0.32320         3.58800
H           3.51440         1.30130         3.08360
H           4.51790         1.02660         0.84230
H           3.32720        -0.22090        -0.89490
C           0.90770        -1.48630        -0.76340
N          -0.41010        -2.03190        -0.33500
H           0.71260        -0.75530        -1.55100
C           1.79420        -2.62840        -1.35080
H           2.65060        -2.16800        -1.84640
N           2.31400        -3.49720        -0.25970
C          -0.23900        -4.81560        -4.47760
C          -0.12730        -5.38990        -3.21420
C           0.53090        -4.70190        -2.19900
C           1.08420        -3.43640        -2.44670
C           0.96320        -2.87140        -3.72100
C           0.30330        -3.55940        -4.73540
H          -0.75060        -5.35010        -5.26560
H          -0.54850        -6.36710        -3.02350
H           0.60860        -5.16500        -1.22530
H           1.37730        -1.89580        -3.93450
H           0.21100        -3.12040        -5.71880
H          -0.56940        -2.99080        -0.64970
H           2.11770        -3.11010         0.66640
S          -1.85500        -1.06880        -0.59340
O          -1.51190         0.31580        -0.25210
C          -2.20760        -1.19690        -2.47640
O          -2.91930        -1.76590         0.13550
S           3.99870        -3.98320        -0.30080
O           4.32510        -4.33700         1.08400
C           4.04240        -5.56120        -1.39350
O           4.73610        -2.90090        -0.96460
F          -3.34050        -0.54540        -2.74510
F          -1.19200        -0.64660        -3.14580
F          -2.32970        -2.48650        -2.79820
F           3.17630        -6.44930        -0.89900
F           3.70620        -5.23080        -2.64210
F           5.27950        -6.06140        -1.37010

