%chk=BPA_TS_1_opt_dft_re5_freq.chk
%nprocshared=12
%mem=48GB
# wb97xd def2svp scrf=(iefpcm,solvent=toluene) freq=noraman

 BPA_TS_1_opt_dft_re5.out

0  1
C          -1.09651         0.62406        -2.20737
C          -0.86970         1.77560        -1.47405
C           0.45096         3.80073        -0.76938
C           2.89533         2.48828        -1.59424
O          -1.66549         2.13079        -0.50192
H           1.34083         4.40216        -0.99833
H           0.48138         3.52509         0.29427
H          -0.42625         4.44140        -0.93172
O           3.68591         2.70916        -0.71363
O           3.00708         2.97173        -2.82716
C           4.15916         3.75776        -3.10341
H           5.07263         3.16250        -2.96703
H           4.06952         4.07646        -4.14703
H           4.20120         4.63245        -2.43915
Si         -3.23759         2.86381        -0.46706
C          -3.18767         4.02282         0.98800
H          -4.03643         4.72236         0.93516
H          -3.25987         3.47506         1.93874
H          -2.25573         4.60666         0.99437
C          -3.38301         3.77214        -2.09315
H          -4.38471         4.21942        -2.19062
H          -3.23316         3.09455        -2.94775
H          -2.64420         4.58550        -2.16107
C          -4.54638         1.51491        -0.25017
C          -4.03653         0.48024         0.76424
H          -4.78563        -0.31600         0.91448
H          -3.10449        -0.00156         0.43280
H          -3.84242         0.92809         1.75258
C          -5.83311         2.17261         0.28203
H          -5.68829         2.62276         1.27617
H          -6.62875         1.41439         0.37858
H          -6.21261         2.95692        -0.39408
C          -4.85507         0.83789        -1.59464
H          -5.60529         0.04055        -1.45395
H          -5.27007         1.54964        -2.32537
H          -3.96693         0.37310        -2.04887
C           1.63882         1.62861        -1.44944
C           0.38864         2.56383        -1.65663
C          -0.26840         0.27610        -3.27413
O           1.67702         0.62093        -2.39486
H           1.62681         1.23680        -0.42074
C          -0.22955        -1.09282        -3.83489
H          -1.82320        -0.10037        -1.83179
H           0.44784         2.86147        -2.71823
C           1.95791         3.03155         2.77571
C           0.78068         3.65184         3.11076
C          -0.44287         2.95742         2.96066
C          -0.46696         1.66591         2.49208
H           2.91064         3.55901         2.86244
H           0.78251         4.67956         3.47975
H          -1.37776         3.45914         3.21434
H          -1.42025         1.15460         2.35883
C           1.96720         1.68884         2.30782
C           0.73913         0.97708         2.18023
C           0.77400        -0.38826         1.73472
C           1.99156        -0.93807         1.36721
C           3.22582        -0.22762         1.46591
C           3.18494         1.05827         1.94989
O           2.01440        -2.21210         0.88803
H           4.11284         1.62457         2.04691
C          -2.84171        -2.68496         1.27389
C          -1.98070        -2.54740         0.21156
C          -0.76278        -1.83147         0.41662
C          -0.45632        -1.22355         1.62494
H          -3.78416        -3.22005         1.13281
O           0.08390        -1.69186        -0.63932
C          -1.32187        -1.44576         2.74815
C          -2.53356        -2.16941         2.55800
C          -3.41077        -2.37007         3.65920
C          -3.09203        -1.90051         4.90891
C          -1.86664        -1.22149         5.11177
C          -1.00593        -1.00219         4.06365
H          -4.34185        -2.91752         3.49233
H          -3.77000        -2.06393         5.74923
H          -1.59830        -0.87634         6.11259
H          -0.05987        -0.48979         4.24064
C           6.98903        -1.90207         0.24722
C           6.10704        -2.66272         1.01495
C           4.87797        -2.13590         1.40339
C           4.51295        -0.83396         1.03330
C           5.40496        -0.07731         0.26074
C           6.63316        -0.60794        -0.12898
H           7.94984        -2.32043        -0.06124
H           6.37628        -3.67839         1.31316
H           4.19320        -2.74126         1.99812
H           5.11817         0.92930        -0.05166
H           7.31280        -0.00741        -0.73808
P           1.55942        -2.47949        -0.67858
O           1.42474        -3.94234        -0.86020
O           2.37254        -1.60683        -1.60790
H           1.98731        -0.29167        -2.00604
C          -3.16350        -3.91923        -3.68432
C          -1.97098        -4.37718        -3.12163
C          -1.56609        -3.94289        -1.86056
C          -2.36366        -3.04451        -1.13879
C          -3.56732        -2.60177        -1.70324
C          -3.96343        -3.02833        -2.97048
H          -3.46926        -4.25870        -4.67661
H          -1.33977        -5.07771        -3.67299
H          -0.61527        -4.28351        -1.44333
H          -4.19310        -1.90448        -1.14278
H          -4.90023        -2.66318        -3.39802
H           0.16629         1.06491        -3.88721
H           0.77480        -1.50710        -3.64549
H          -0.95882        -1.75795        -3.35731
H          -0.37155        -1.07245        -4.92499

