%chk=cyclic-1_1_opt_hf_reopt9_freq.chk
%nprocshared=12
%mem=48GB
# wb97xd def2svp scrf=(iefpcm,solvent=toluene) freq=noraman

 cyclic-1_1_opt_hf_reopt9.out

0  1
C           3.53943         0.12779        -0.00381
C          -1.45376         1.55506         0.02234
C           2.86207        -1.96874         0.00798
C          -2.17831         0.43574         0.00562
N           3.93547        -1.13577         0.00083
H          -0.36246         1.50853         0.02581
H          -1.93915         2.53523         0.03294
H           2.95123        -3.04833         0.01280
H          -1.69723        -0.54431        -0.00425
O           2.22211         0.18054        -0.00001
C           1.69295        -1.16790         0.00771
O           0.50759        -1.35431         0.01207
C          -3.66203         0.48833         0.00121
O          -4.33431         1.49166         0.01093
O          -4.18948        -0.74172        -0.01459
C          -5.60480        -0.82218        -0.01929
H          -5.85302        -1.88918        -0.02196
H          -6.02235        -0.33523        -0.91256
H          -6.02848        -0.33780         0.87242
C           4.36936         1.27121        -0.01230
N           5.06607         2.19710        -0.01922
H           4.90396        -1.44347        -0.00046

