%chk=da-2_1_opt_hf_reopt8_freq.chk
%nprocshared=12
%mem=48GB
# wb97xd def2svp scrf=(iefpcm,solvent=toluene) freq=noraman

 da-2_1_opt_hf_reopt8.out

0  1
C          -2.66403        -1.28706         0.00540
C           3.57836         0.07949         0.02596
C          -4.50046         1.20443         0.01903
C           3.11294         1.32883         0.02045
C          -2.28354        -0.00129        -0.00824
C          -3.16180         1.18059        -0.00083
H          -5.04458         2.15176         0.02281
H          -5.10284         0.29101         0.03209
H          -3.73407        -1.53054         0.02404
H           4.60588        -0.27893         0.04573
H           3.65506         2.27254         0.03441
O           1.27151        -0.06887        -0.02161
C           2.40726        -0.84558        -0.00043
C           1.62214         1.26149        -0.01013
O           2.36587        -2.03315        -0.00427
O           0.81374         2.13273        -0.02349
C          -1.72541        -2.45271        -0.00286
H          -1.90452        -3.09599        -0.88041
H          -0.67391        -2.13254        -0.01876
H          -1.87988        -3.08864         0.88466
H          -1.21162         0.21729        -0.02661
H          -2.63127         2.13919        -0.01314

