%chk=da-2_1_opt_dft_reopt_freq.chk
%nprocshared=12
%mem=48GB
# wb97xd def2svp scrf=(iefpcm,solvent=toluene) freq=noraman

 da-2_1_opt_dft_reopt.out

0  1
C          -2.17494         0.62691         0.27433
C           0.33153        -1.04271         1.26350
C           0.19968         2.57619         0.37190
C           1.37883        -0.21830         1.32899
C          -1.40858         1.01225        -0.76060
C          -0.31994         1.99422        -0.71940
H           1.02663         3.28445         0.28773
H          -0.18184         2.37943         1.37790
H          -2.02426         1.10740         1.24833
H          -0.36348        -1.34840         2.04298
H           1.77608         0.33646         2.17649
O           1.25627        -0.97182        -0.85318
C           0.24155        -1.55641        -0.13181
C           2.00561        -0.16637        -0.02195
O          -0.51278        -2.34169        -0.61432
O           2.97686         0.40697        -0.39829
C          -3.24601        -0.42261         0.18642
H          -4.03718        -0.12730        -0.52082
H          -2.82801        -1.37743        -0.17114
H          -3.71985        -0.60080         1.16084
H          -1.58186         0.54040        -1.73457
H           0.12451         2.23902        -1.68965

