%chk=da-2_1_opt_hf_re4_freq.chk
%nprocshared=12
%mem=48GB
# wb97xd def2svp scrf=(iefpcm,solvent=toluene) freq=noraman

 da-2_1_opt_hf_re4.out

0  1
C          -1.32871         1.20539        -0.48029
C           1.07558        -1.61813        -0.48824
C          -2.88056        -1.45529        -0.65282
C           0.88685        -1.48150         0.82317
C          -1.91866         0.53949         0.52379
C          -2.45101        -0.83015         0.45000
H          -3.24297        -2.48521        -0.61311
H          -2.90025        -0.95790        -1.62729
H          -1.19796         0.69567        -1.44442
H           0.87602        -2.47085        -1.13393
H           0.49287        -2.19321         1.54578
O           1.75289         0.52401         0.06330
C           1.61459        -0.32870        -1.00697
C           1.30409        -0.10151         1.20492
O           1.89273        -0.00698        -2.11784
O           1.29385         0.43572         2.26516
C          -0.80824         2.60420        -0.39867
H          -1.31229         3.25120        -1.13494
H          -0.95729         3.03500         0.60176
H           0.26788         2.63220        -0.63151
H          -2.00233         1.03502         1.49846
H          -2.50302        -1.36677         1.40481

