%nprocshared=12
%mem=48GB
# external="~/scripts/MiMe -H 'am1' -EF 'wb97xd def2svp' -c 12 -m 48GB" opt=(calcall,ts,noeigen,maxcycles=50,maxstep=10,nomicro,cartesian) 

 *****

0  1
O           1.45710         1.02770        -0.47030
C          -0.24470         1.59600         0.27150
C           0.52430        -1.10640         1.17670
C          -0.97040         0.44300         0.82530
C           1.70890        -0.11700        -0.84240
C           1.25470        -1.29730        -0.06980
H           2.24580        -0.34330        -1.77840
H           1.04750        -0.47910         1.90540
H           1.22460        -2.24970        -0.58300
H           0.18690         2.29960         0.97950
H          -0.57020         1.97840        -0.69580
H          -1.20700         0.50300         1.88650
C          -2.00630        -0.23910        -0.00680
O          -1.96370        -0.30050        -1.22880
H           0.03930        -1.99450         1.57950
H          -2.81800        -0.70850         0.57350

