%nprocshared=12
%mem=48GB
# external="~/scripts/MiMe -H 'am1' -EF 'wb97xd def2svp' -c 12 -m 48GB" opt=(calcall,ts,noeigen,maxcycles=50,maxstep=10,nomicro,cartesian) 

 *****

0  1
C          -1.37020        -1.14030         0.20640
C          -0.75580         1.07450         0.44790
C           0.82240        -1.04880        -0.49010
C           0.48280         1.00890        -0.32650
C          -0.51470        -1.68400         1.26100
C           0.76030        -1.64480         0.85470
H           1.62140        -1.93270         1.44020
C           2.13440        -0.84670        -1.18320
H           2.73200        -1.76370        -1.20430
H           1.95890        -0.54940        -2.22430
C           2.87950         0.28050        -0.43930
H           3.52190        -0.14910         0.33720
H           3.49300         0.86870        -1.12780
C           1.85450         1.17960         0.23360
O           2.10150         1.94060         1.15860
H          -0.86740        -2.01710         2.22570
H           0.41160         1.35620        -1.35850
H          -0.70910         1.12990         1.53120
C          -0.55130        -1.31210        -1.06710
H          -0.62720        -2.33460        -1.45630
H          -0.84760        -0.61700        -1.85760
Cl         -2.01760         2.09700        -0.16110
C          -2.84120        -1.36910         0.22710
H          -3.34460        -0.71330        -0.48880
H          -3.07490        -2.40560        -0.03520
H          -3.25300        -1.16410         1.22060

