%chk=TS-249_opt_hf_freq.chk
%nprocshared=12
%mem=48GB
# wb97xd def2svp scrf=(iefpcm,solvent=toluene) freq=noraman

 TS-249_opt_hf.out

0  1
C          -0.92961         0.65919        -0.27074
C          -1.90006        -0.21167         0.29077
O          -3.03249        -0.45586        -0.11452
C           0.34932         0.78112         0.31329
C           2.89844        -0.27574         0.14076
H           2.87507        -0.45564         1.22343
H           3.56854        -1.00745        -0.33119
H           3.28796         0.73517        -0.03771
N           1.53625        -0.35981        -0.38468
H           1.11682        -1.28019        -0.23660
H           1.49799        -0.19073        -1.39183
H           0.92412         1.69595         0.12013
H           0.44400         0.45156         1.35813
H          -1.17856         1.21122        -1.18201
H          -1.53842        -0.71182         1.24197

