%chk=segphos_OPLS3e_1_opt_hess.chk
%nprocshared=12
%mem=48GB
# m062x 6-31g(d) scrf=(iefpcm,solvent=benzene) opt=(calcfc,maxcycles=50,maxstep=10) freq=noraman

 Structure1514

0  1
C           1.58020         1.29030        -0.29440
C           0.86110         2.08660         0.61930
C          -0.49690         1.86050         0.87430
C          -1.11220         0.82840         0.18170
C          -0.42830         0.04590        -0.70500
C           0.92850         0.23690        -0.97260
P           3.38870         1.67210        -0.61800
H           1.36430         2.89270         1.12980
H          -1.04190         2.46910         1.57910
O          -2.40040         0.40490         0.26410
O          -1.27410        -0.90050        -1.19910
C           3.02270        -2.35270        -3.73240
C           3.21660        -2.41520        -2.36060
C           2.54820        -1.59240        -1.49900
C           1.63280        -0.63650        -1.94320
C           1.42470        -0.53760        -3.33640
C           2.12000        -1.39570        -4.21170
H           3.54850        -3.01150        -4.40610
O           4.01770        -3.25760        -1.65740
O           2.90940        -1.90520        -0.22350
P           0.25810         0.74860        -4.04790
H           1.95980        -1.31090        -5.27510
C          -2.55580        -0.51420        -0.78350
C           4.00790        -2.76740        -0.34370
H          -3.07110        -0.03010        -1.61660
H          -3.13540        -1.37990        -0.46000
H           4.92620        -2.20430        -0.16040
H           3.94020        -3.58380         0.37670
C           3.38760         5.78650        -2.78960
C           2.18900         5.08660        -2.66920
C           2.17060         3.85840        -2.01250
C           3.34570         3.33160        -1.47090
C           4.54400         4.03190        -1.61500
C           4.56820         5.26280        -2.26670
H           3.40280         6.73600        -3.30530
H           1.27930         5.48090        -3.09780
H           1.24520         3.30550        -1.95460
H           5.45460         3.60900        -1.21700
H           5.49820         5.80190        -2.37280
C           4.76490         2.35370         3.76880
C           4.55470         3.46600         2.95590
C           4.14380         3.28770         1.63650
C           3.94530         2.00050         1.13050
C           4.15530         0.89470         1.95330
C           4.56530         1.06670         3.27330
H           5.08230         2.49000         4.79300
H           4.70660         4.46190         3.34590
H           3.97040         4.15170         1.01480
H           3.98880        -0.09690         1.55770
H           4.72390         0.20620         3.90690
C           3.00130         3.75850        -6.29730
C           3.57940         2.84620        -5.41720
C           2.77300         1.93150        -4.74410
C           1.39180         1.92270        -4.95330
C           0.82150         2.85410        -5.82180
C           1.62300         3.76850        -6.50150
H           3.62640         4.47260        -6.81400
H           4.64480         2.85650        -5.23960
H           3.22390         1.25180        -4.03700
H          -0.24940         2.86030        -5.96130
H           1.17650         4.48540        -7.17480
C          -1.87660        -1.90400        -7.21160
C          -0.89530        -1.01290        -7.64180
C          -0.24230        -0.20550        -6.71290
C          -0.57080        -0.28730        -5.35730
C          -1.55160        -1.18460        -4.93710
C          -2.20730        -1.99490        -5.86100
H          -2.38330        -2.53220        -7.93040
H          -0.63930        -0.94920        -8.68940
H           0.52510         0.47380        -7.04890
H          -1.79200        -1.24980        -3.88570
H          -2.96470        -2.69010        -5.52920

