%chk=checkpoints/1b_gs_2_opt
%nprocshared=16
%mem=48GB
# m062x 6-31g(d) scrf=(iefpcm,solvent=benzene) opt=(maxcycles=50,maxstep=10)

 *****

0  1
H          -2.78050        -0.20930        -0.68300
C          -0.49240        -0.20130        -0.68770
C          -1.71300        -0.20690        -0.68450
C           0.97660        -0.20580        -0.68510
H           1.34330        -0.20690         0.34130
H           1.34330        -1.09520        -1.19730
H           1.34870         0.68130        -1.19730

