%chk=checkpoints/1e_gs_2_opt
%nprocshared=16
%mem=48GB
# m062x 6-31g(d) scrf=(iefpcm,solvent=benzene) opt=(maxcycles=50,maxstep=10)

 *****

0  1
H          -1.89850        -1.23450        -0.32520
C          -0.99650        -0.64190        -0.35380
C          -0.34270         0.64490         0.06770
C           0.24130        -0.48640        -0.73230
H           1.11570        -0.85570        -1.24690
Cl          0.15010         0.85110         1.76410
Cl         -0.78610         2.15420        -0.76190

