%chk=allylic-1_1_opt_hf_reopt_freq.chk
%nprocshared=12
%mem=48GB
# wb97xd def2svp scrf=(iefpcm,solvent=toluene) freq=noraman

 allylic-1_1_opt_hf_reopt.out

0  1
C          -0.92358        -0.45812        -0.94045
C           2.39617        -0.19954         0.26518
C          -0.97616         1.89387        -0.52756
C           2.28850         0.68470        -0.71418
N          -1.24048         0.48661        -0.13416
H           3.15053         0.83681        -1.36567
H          -0.31279         2.25829         0.28743
H           3.27828        -0.80437         0.49239
H          -1.93890         2.41314        -0.33440
H          -0.53476        -0.09080        -1.89488
H           1.37223         1.26704        -0.88852
F           1.38844        -0.45930         1.11896
C          -1.01657        -1.91850        -0.66219
H          -0.66189        -2.48847        -1.52839
H          -0.39467        -2.17767         0.20827
H          -2.05159        -2.22495        -0.44489
C          -1.77182         0.20672         1.19803
H          -2.62696         0.87250         1.36694
H          -2.08259        -0.83788         1.32802
H          -0.98875         0.44900         1.92924

