%chk=allylic-1_1_opt_dft_re_freq.chk
%nprocshared=12
%mem=48GB
# wb97xd def2svp scrf=(iefpcm,solvent=toluene) freq=noraman

 allylic-1_1_opt_dft_re.out

0  1
C          -0.92350        -0.45830        -0.94046
C           2.39553        -0.19934         0.26483
C          -0.97655         1.89372        -0.52782
C           2.28737         0.68475        -0.71461
N          -1.24014         0.48641        -0.13408
H           3.14902         0.83634        -1.36673
H          -0.31275         2.25860         0.28663
H           3.27766        -0.80438         0.49142
H          -1.93937         2.41265        -0.33414
H          -0.53527        -0.09094        -1.89512
H           1.37118         1.26735        -0.88873
F           1.38845        -0.45874         1.11948
C          -1.01610        -1.91869        -0.66214
H          -0.66178        -2.48861        -1.52852
H          -0.39370        -2.17776         0.20800
H          -2.05095        -2.22531        -0.44427
C          -1.77079         0.20660         1.19840
H          -2.62705         0.87104         1.36696
H          -2.07976        -0.83843         1.32924
H          -0.98803         0.45078         1.92928

