%chk=allylic-1_1_opt_sqm_re_freq.chk
%nprocshared=12
%mem=48GB
# wb97xd def2svp scrf=(iefpcm,solvent=toluene) freq=noraman

 allylic-1_1_opt_sqm_re.out

0  1
C           0.92333         0.45830        -0.94045
C          -2.39556         0.19928         0.26487
C           0.97660        -1.89370        -0.52775
C          -2.28738        -0.68491        -0.71449
N           1.24018        -0.48637        -0.13410
H          -3.14901        -0.83656        -1.36662
H           0.31300        -2.25861         0.28684
H          -3.27770         0.80433         0.49138
H           1.93948        -2.41257        -0.33427
H           0.53497         0.09089        -1.89504
H          -1.37118        -1.26751        -0.88853
F          -1.38850         0.45876         1.11950
C           1.01589         1.91870        -0.66220
H           2.05080         2.22541        -0.44472
H           0.66122         2.48856        -1.52847
H           0.39379         2.17776         0.20816
C           1.77110        -0.20649         1.19826
H           2.62736        -0.87095         1.36670
H           2.08013         0.83854         1.32897
H           0.98847        -0.45059         1.92933

