%chk=bach_OPLS3e_1_opt_freq.chk
%nprocshared=12
%mem=48GB
# m062x 6-31g(d) scrf=(iefpcm,solvent=benzene) opt=(maxcycles=50,maxstep=10) freq=noraman

 Structure1

0  1
C          -2.86570        -2.89340        -3.30870
C          -1.94470        -3.88880        -3.66330
C          -0.60810        -3.53970        -3.88550
C          -0.22470        -2.19050        -3.73220
C          -1.19110        -1.21590        -3.40670
C          -2.53110        -1.54580        -3.17310
O          -4.07410        -3.48620        -3.14580
N          -2.57690        -5.09690        -3.73120
H           0.10720        -4.29830        -4.17150
H          -0.90400        -0.17240        -3.34820
H          -3.28370        -0.81160        -2.92620
C          -3.83460        -4.79720        -3.45970
C          -5.01050        -5.78520        -3.37990
C          -4.97710        -6.86050        -4.51320
C          -5.40020        -6.39270        -5.94130
C          -6.87050        -5.94380        -5.85250
C          -6.98720        -4.73880        -4.88250
C          -6.41070        -5.07910        -3.46280
H          -5.60630        -7.70800        -4.23410
H          -3.96460        -7.26560        -4.56860
C          -5.30780        -7.59470        -6.91060
C          -4.53050        -5.21420        -6.49760
H          -7.25320        -5.68040        -6.84190
H          -7.50200        -6.76310        -5.50420
C          -8.46820        -4.29230        -4.75450
H          -7.12850        -5.77810        -3.03060
H          -6.45310        -4.20140        -2.81370
C          -4.91520        -6.52150        -2.01950
H          -5.66180        -7.33820        -7.91040
H          -4.28000        -7.94650        -7.01110
H          -5.90630        -8.43980        -6.56720
H          -8.88310        -3.98130        -5.71510
H          -9.09830        -5.09800        -4.37720
H          -8.57860        -3.44830        -4.07070
C          -6.16960        -3.55190        -5.49690
O          -6.44140        -2.36340        -5.37190
H          -4.58600        -5.21940        -7.58800
N          -5.05960        -3.86930        -6.18520
H          -3.47580        -5.30720        -6.23630
H          -4.57700        -3.05320        -6.52550
H          -3.96400        -7.04730        -1.92000
H          -4.97330        -5.81910        -1.18640
H          -5.70900        -7.25700        -1.88350
C           1.20440        -1.80260        -4.01410
O           1.86190        -2.46540        -4.82190
C           3.12190         1.49650        -2.03690
C           2.08280         0.82750        -1.39570
C           1.45080        -0.23860        -2.03070
C           1.84110        -0.62890        -3.32150
C           2.91160         0.03460        -3.93910
C           3.54270         1.10070        -3.30350
H           3.61510         2.32100        -1.54240
H           1.77560         1.12730        -0.40400
H           0.66770        -0.76390        -1.50080
H           3.25560        -0.27170        -4.91890
H           4.36020         1.61300        -3.79040

