%chk=ricci_OPLS3e_1_opt_freq.chk
%nprocshared=12
%mem=48GB
# m062x 6-31g(d) scrf=(iefpcm,solvent=benzene) opt=(maxcycles=50,maxstep=10) freq=noraman

 Structure2

0  1
C           0.69050         0.22490         2.01950
C          -0.60320         0.73730         1.34790
C          -0.27230         0.98600        -0.11990
N           1.49560         1.28380         2.65470
H           0.44250        -0.58930         2.70220
H          -1.31170        -0.09190         1.40680
O          -1.24020         1.84600         1.95030
H           0.01940         2.02500        -0.27980
H          -1.12770         0.77240        -0.76030
C           1.45700        -0.35590         0.84850
C           0.90810         0.07710        -0.36430
C           1.52090        -0.26260        -1.57010
C           2.65070        -1.08340        -1.56680
C           3.18160        -1.54110        -0.35890
C           2.59170        -1.17170         0.85160
H           1.12600         0.09970        -2.50840
H           3.12110        -1.35870        -2.50120
H           4.06140        -2.17060        -0.36190
H           3.02700        -1.50690         1.78280
H          -1.53510         1.58410         2.82880
H           2.13220         1.79240         2.05920
C           1.39600         1.66380         3.96300
S           0.50830         0.88730         5.13370
N           2.13800         2.73520         4.35290
H           2.18670         2.85970         5.35350
C           3.88620         5.89610         2.20260
C           2.77670         5.24370         1.65030
C           2.18130         4.19410         2.35890
C           2.69670         3.78310         3.59750
C           3.78990         4.45950         4.14260
C           4.39640         5.51540         3.45040
H           4.35170         6.71080         1.66220
C           2.21420         5.66620         0.29260
H           1.29700         3.72170         1.95030
H           4.18350         4.15540         5.10360
C           5.60000         6.24390         4.04990
F           1.77950         4.60510        -0.38940
F           1.19270         6.49810         0.48790
F           3.13390         6.28910        -0.44620
F           6.71340         5.62860         3.65540
F           5.64830         7.51380         3.64490
F           5.55620         6.23120         5.38310

