%chk=sulphon_OPLS3e_1_opt_freq.chk
%nprocshared=12
%mem=48GB
# m062x 6-31g(d) scrf=(iefpcm,solvent=benzene) opt=(maxcycles=50,maxstep=10) freq=noraman

 Structure901

0  1
C           6.57840         0.22280        -2.80380
C           6.75620        -0.24670        -1.50160
C           8.01500        -0.19860        -0.90280
C           9.10530         0.29020        -1.61880
C           8.92590         0.74630        -2.92340
C           7.66540         0.72150        -3.51700
H           5.60090         0.19180        -3.26460
N           5.68300        -0.77840        -0.78450
H           8.16080        -0.56230         0.10350
H          10.08800         0.30610        -1.16960
H           9.77430         1.11880        -3.47990
H           7.53100         1.07960        -4.52680
H           5.73900        -0.77220         0.21800
S           4.88090        -2.23880        -1.33370
O           4.52880        -2.05430        -2.74370
O           3.87350        -2.54760        -0.31630
C           8.10970        -5.47540        -1.14910
C           8.19440        -4.44220        -2.08670
C           7.20510        -3.45910        -2.13900
C           6.13000        -3.50770        -1.25030
C           6.04350        -4.53580        -0.30730
C           7.03390        -5.51860        -0.26020
H           8.87680        -6.23800        -1.10460
H           7.27150        -2.65950        -2.86850
H           5.20950        -4.57730         0.38170
H           6.96770        -6.31560         0.46690
S           9.55560        -4.36150        -3.23470
O          10.44330        -5.48920        -2.94220
N           8.84590        -4.70550        -4.80180
O          10.03840        -2.97850        -3.25450
H           8.70760        -5.69440        -4.90790
C           5.94320        -2.15510        -6.37820
C           7.24140        -1.68340        -6.19390
C           8.21580        -2.53350        -5.67730
C           7.88850        -3.85000        -5.34950
C           6.59360        -4.32500        -5.55740
C           5.61530        -3.47260        -6.06400
H           5.18120        -1.49320        -6.76470
H           7.49120        -0.66270        -6.44240
H           9.22150        -2.16830        -5.52260
H           6.33230        -5.34160        -5.30370
H           4.60400        -3.82720        -6.20300

