%nprocshared=12
%mem=48GB
# external="~/scripts/MiMe -H 'am1' -EF 'wb97xd def2svp' -c 12 -m 48GB" opt=(calcall,ts,eigentest,maxcycles=50,maxstep=10,nomicro) 

 *****

0  1
C          -1.76360         0.76990         0.26830
C          -0.16750        -0.73800         1.13570
C           0.75330         2.43970         0.29560
C           1.11380        -0.12490         1.22140
C          -1.08050         1.29340        -0.90680
C           0.04020         2.03070        -0.88700
H           1.79100         2.74430         0.20330
H           0.24540         2.58380         1.24140
H           0.51180         2.29040        -1.83430
H          -1.48160         0.99540        -1.87570
H          -1.68720         1.34370         1.19130
H          -0.81790        -0.92530         1.97520
H           1.54850         0.38960         2.05810
O           1.12610        -1.50560        -0.58780
C          -0.08140        -1.68670         0.01620
C           1.89350        -0.60200         0.08160
O          -0.93230        -2.50150        -0.28650
O           3.02940        -0.26390        -0.19030
C          -3.05760         0.03560         0.06270
H          -3.22590        -0.65980         0.89100
H          -3.89360         0.74100         0.03770
H          -3.05740        -0.54130        -0.86730

