%nprocshared=12
%mem=48GB
# external="~/scripts/MiMe -H 'am1' -EF 'wb97xd def2svp' -c 12 -m 48GB" opt=(calcall,ts,eigentest,maxcycles=50,maxstep=10,nomicro) 

 *****

0  1
C          -0.25750        -1.94450         0.49240
C           0.32860        -0.08890        -0.79090
C          -2.03520        -0.70410         0.03880
C          -1.11500         0.32850        -0.93160
C          -1.03560        -2.71390        -0.45100
C          -2.14940        -2.01060        -0.69950
H          -2.92640        -2.28190        -1.39670
C          -3.25740         0.12260         0.38310
H          -3.96830         0.11970        -0.45240
H          -3.78780        -0.24500         1.26810
C          -2.71950         1.53960         0.60150
H          -3.49060         2.29030         0.41240
H          -2.31190         1.66340         1.60930
C          -1.58720         1.66660        -0.39860
O          -1.11740         2.73940        -0.76230
H          -0.74210        -3.66340        -0.86840
H          -1.45610         0.23620        -1.96990
H           0.79030        -0.61720        -1.61790
C           1.21580         0.56540         0.18360
O           0.81530         1.17520         1.16240
N          -1.17860        -1.07080         1.17970
H          -0.73900        -0.29420         1.67980
H           0.67180        -2.29730         0.92930
Br          3.05420         0.29980         0.00660

