%nprocshared=12
%mem=48GB
# external="~/scripts/MiMe -H 'am1' -EF 'wb97xd def2svp' -c 12 -m 48GB" opt=(calcall,ts,eigentest,maxcycles=50,maxstep=10,nomicro) 

 TS-898.out

0  1
C          -0.46944        -0.70158        -0.31570
C          -1.80325        -0.37883         0.26459
O          -2.16660        -0.88981         1.32245
C           0.64063        -0.22369         0.32388
C           0.48216         2.80238        -0.36191
H           1.05920         3.47900        -0.99873
H          -0.56866         2.85168        -0.65767
H           0.56954         3.13654         0.67555
N           0.98232         1.42813        -0.49487
H           0.97470         1.21586        -1.49940
H           1.99051         1.47348        -0.28996
Cl          2.20424        -1.06498        -0.03906
C           0.59920         0.23794         1.78923
H          -0.22197         0.93682         1.97915
H           0.48467        -0.62723         2.45151
H           1.52984         0.74582         2.06821
C          -0.50617        -1.49801        -1.58355
H           0.43652        -1.45603        -2.13643
H          -0.72787        -2.54679        -1.36119
H          -1.27943        -1.12504        -2.26314
C          -2.69529         0.55705        -0.50643
H          -3.55857         0.00300        -0.88378
H          -3.02491         1.36267         0.15514
H          -2.16599         1.00486        -1.35156

