%nprocshared=12
%mem=48GB
# external="~/scripts/MiMe -H 'hf def2svp' -EF 'wb97xd def2svp' -c 12 -m 48GB" opt=(calcall,ts,noeigen,maxcycles=50,maxstep=10,nomicro) 

 TS-249.out

0  1
C          -0.98025         0.69195        -0.20894
C          -1.92168        -0.31000         0.32291
O          -3.01226        -0.50219        -0.20060
C           0.22829         0.86754         0.36619
C           2.98171        -0.36432         0.09422
H           3.02270        -0.73989         1.12039
H           3.50996        -1.06410        -0.55969
H           3.48667         0.60480         0.05611
N           1.58522        -0.22082        -0.33301
H           1.18839        -1.16551        -0.35932
H           1.60848         0.04987        -1.32227
H           0.80126         1.75285         0.06792
H           0.42254         0.43147         1.35258
H          -1.29964         1.25724        -1.07510
H          -1.58720        -0.87442         1.20893

