%chk=checkpoints/2d_gs_2_opt_hess
%nprocshared=16
%mem=48GB
# m062x 6-31g(d) scrf=(iefpcm,solvent=benzene) opt=(calcfc,maxcycles=50,maxstep=10) freq=noraman

 *****

0  1
C          -0.47030         1.14130        -0.46350
H          -0.69580        -1.03920        -0.68050
C           1.71580         1.15670        -0.39900
H           1.99960        -1.02460        -0.60130
C          -0.05460        -0.17580        -0.57870
C           1.34150        -0.16920        -0.53770
H           2.66830         1.66160        -0.32280
O           0.61520         1.94950        -0.35420
C          -1.81480         1.81850        -0.43690
H          -2.63130         1.10320        -0.52950
H          -1.96470         2.36500         0.49380
H          -1.91430         2.53350        -1.25310

