%nprocshared=12
%mem=48GB
# external="~/scripts/MiMe -H 'hf def2svp' -EF 'wb97xd def2svp' -c 12 -m 48GB" opt=(calcall,ts,noeigen,maxcycles=50,maxstep=10,nomicro) 

 TS-898_hfm.out

0  1
C          -0.60341        -0.43012        -0.19147
C          -1.84913         0.04758         0.36389
O          -1.97073         0.85039         1.29173
C           0.63420         0.00532         0.33326
C           0.79197         2.12134        -1.27892
H           1.15450         2.49000        -2.24730
H          -0.27838         1.87314        -1.34182
H           0.93417         2.89179        -0.51260
N           1.49353         0.90081        -0.88035
H           1.55618         0.23458        -1.65300
H           2.44853         1.06538        -0.55419
Cl          1.97718        -1.32818         0.47800
C           0.73251         0.86437         1.56752
H           0.09695         1.75227         1.47372
H           0.33521         0.30091         2.42052
H           1.77979         1.13010         1.77386
C          -0.60780        -1.35592        -1.38996
H           0.38418        -1.80688        -1.54624
H          -1.29865        -2.20404        -1.26334
H          -0.90201        -0.85888        -2.33538
C          -3.12578        -0.49977        -0.27527
H          -3.20818        -1.58791        -0.12518
H          -3.98238        -0.00707         0.20056
H          -3.15630        -0.31997        -1.36123

