%chk=TS-898_opt_sqm_re.chk
%nprocshared=12
%mem=48GB
# wb97xd def2svp scrf=(iefpcm,solvent=toluene)  opt=(readfc,ts,noeigen,maxcycles=50,maxstep=10) 

 TS-898_opt_sqm.out

0  1
C          -0.60071        -0.42923        -0.19010
C          -1.84029         0.09128         0.34063
O          -1.95599         0.94606         1.22543
C           0.63972        -0.02178         0.34694
C           0.80604         2.14627        -1.26683
H           1.11789         2.50357        -2.25671
H          -0.26497         1.88651        -1.28891
H           0.96723         2.93077        -0.52267
N           1.53771         0.94093        -0.88238
H           1.63708         0.29689        -1.66121
H           2.47826         1.13310        -0.53697
Cl          1.93456        -1.35731         0.45638
C           0.74679         0.82839         1.58527
H           0.15037         1.74001         1.47310
H           0.32163         0.27924         2.43526
H           1.79907         1.05550         1.81251
C          -0.63457        -1.42708        -1.32988
H           0.37841        -1.70900        -1.65701
H          -1.13110        -2.37260        -1.05046
H          -1.16002        -1.04227        -2.21926
C          -3.11427        -0.49702        -0.26421
H          -3.97257        -0.02243         0.22827
H          -3.17627        -0.31827        -1.35046
H          -3.16501        -1.58681        -0.12163

