%chk=TS-92_opt_dft_freq.chk
%nprocshared=12
%mem=48GB
# wb97xd def2svp scrf=(iefpcm,solvent=toluene) freq=noraman

 TS-92_opt_dft.out

0  1
C          -0.90919        -0.70553         0.18653
C          -2.28943        -0.46048         0.15146
O          -2.85680         0.64005         0.02883
C           0.04985         0.41206         0.27113
C          -0.80151         2.63752        -1.05713
H          -0.19028         3.33575        -0.47580
H          -0.91387         3.01855        -2.08076
H          -1.78347         2.48910        -0.59560
N          -0.14111         1.31963        -1.10943
H          -0.70374         0.67558        -1.67449
H           0.77321         1.39699        -1.56211
C           1.49452        -0.07387         0.16154
C           1.83911        -0.97863        -0.85537
C           3.15035        -1.41922        -1.01272
C           4.14914        -0.96803        -0.14948
C           3.82134        -0.07304         0.86562
C           2.50773         0.37409         1.01618
H           1.05863        -1.35330        -1.52214
H           3.39173        -2.12612        -1.80963
H           5.17771        -1.31588        -0.26675
H           4.59281         0.28368         1.55160
H           2.28156         1.07282         1.82183
C          -0.18503         1.36861         1.43888
H          -1.24399         1.64936         1.47144
H           0.04544         0.82422         2.36409
H           0.43649         2.27708         1.41031
H          -0.54352        -1.72919         0.23702
O          -3.05105        -1.59948         0.22211
C          -4.43989        -1.42627         0.09850
H          -4.88757        -2.42630         0.17276
H          -4.84752        -0.78306         0.89449
H          -4.71503        -0.97441        -0.86864

