%chk=TS-92_opt_sqm_re4_freq.chk
%nprocshared=12
%mem=48GB
# wb97xd def2svp scrf=(iefpcm,solvent=toluene) freq=noraman

 TS-92_opt_sqm_re4.out

0  1
C          -0.90908        -0.70554         0.18674
C          -2.28931        -0.46055         0.15152
O          -2.85669         0.63997         0.02888
C           0.04987         0.41219         0.27110
C          -0.80192         2.63730        -1.05717
H          -0.19051         3.33575        -0.47627
H          -0.91477         3.01805        -2.08086
H          -1.78364         2.48889        -0.59523
N          -0.14136         1.31949        -1.10943
H          -0.70406         0.67533        -1.67436
H           0.77286         1.39691        -1.56225
C           1.49455        -0.07373         0.16148
C           1.83916        -0.97832        -0.85557
C           3.15039        -1.41896        -1.01291
C           4.14913        -0.96801        -0.14949
C           3.82130        -0.07319         0.86575
C           2.50772         0.37403         1.01628
H           1.05870        -1.35286        -1.52243
H           3.39179        -2.12571        -1.80994
H           5.17769        -1.31590        -0.26674
H           4.59274         0.28332         1.55190
H           2.28154         1.07267         1.82200
C          -0.18495         1.36884         1.43879
H          -1.24389         1.64965         1.47135
H           0.04548         0.82449         2.36403
H           0.43663         2.27726         1.41013
H          -0.54333        -1.72916         0.23731
O          -3.05090        -1.59958         0.22205
C          -4.43975        -1.42639         0.09861
H          -4.71504        -0.97484        -0.86864
H          -4.88744        -2.42638         0.17328
H          -4.84722        -0.78291         0.89446

