%chk=TS-92_opt_hf_reopt_freq.chk
%nprocshared=12
%mem=48GB
# wb97xd def2svp scrf=(iefpcm,solvent=toluene) freq=noraman

 TS-92_opt_hf_reopt.out

0  1
C          -0.90911        -0.70554         0.18620
C          -2.28936        -0.46051         0.15132
O          -2.85680         0.64003         0.02904
C           0.04987         0.41227         0.27079
C          -0.80205         2.63715        -1.05714
H          -0.19106         3.33564        -0.47586
H          -0.91448         3.01801        -2.08082
H          -1.78397         2.48842        -0.59561
N          -0.14117         1.31948        -1.10935
H          -0.70352         0.67521        -1.67447
H           0.77315         1.39714        -1.56201
C           1.49457        -0.07372         0.16140
C           1.83930        -0.97838        -0.85554
C           3.15056        -1.41900        -1.01273
C           4.14922        -0.96793        -0.14927
C           3.82127        -0.07304         0.86587
C           2.50766         0.37411         1.01627
H           1.05893        -1.35301        -1.52247
H           3.39206        -2.12582        -1.80967
H           5.17780        -1.31579        -0.26641
H           4.59264         0.28358         1.55203
H           2.28136         1.07276         1.82195
C          -0.18504         1.36867         1.43870
H          -1.24400         1.64945         1.47127
H           0.04532         0.82413         2.36384
H           0.43651         2.27712         1.41029
H          -0.54339        -1.72915         0.23723
O          -3.05092        -1.59957         0.22185
C          -4.43981        -1.42637         0.09891
H          -4.88737        -2.42652         0.17223
H          -4.84724        -0.78410         0.89578
H          -4.71533        -0.97343        -0.86762

