%nprocshared=12
%mem=48GB
# external="~/scripts/MiMe -H 'hf 6-31g(d)' -EF 'wb97xd def2svp' -c 12 -m 48GB" opt=(calcall,ts,noeigen,maxcycles=50,maxstep=10,nomicro) 

 TS-325_hf_1.out

0  1
C           0.10822         0.09638        -0.09555
C          -0.32811         1.50034         0.01491
O          -1.33880         1.82031         0.65190
C          -0.84892        -0.88831         0.06832
C          -0.57463        -0.85209         2.89315
H          -0.84183        -0.38525         3.85457
H          -0.37035        -1.91912         3.06008
H           0.34692        -0.37682         2.52225
N          -1.59875        -0.68678         1.88363
H          -2.44538        -1.22984         2.04190
H          -1.82637         0.30673         1.71185
H          -0.51301        -1.92595         0.12466
Br         -2.56386        -0.84276        -0.84563
C           1.53632        -0.28870        -0.17159
C           2.53808         0.42653         0.51491
C           3.87392         0.03960         0.45613
C           4.25373        -1.08517        -0.27688
C           3.27882        -1.80713        -0.96292
C           1.94504        -1.40610        -0.92312
H           2.25854         1.29730         1.11303
H           4.62534         0.61521         1.00221
H           5.30113        -1.39135        -0.31767
H           3.56066        -2.68165        -1.55434
H           1.20116        -1.95544        -1.50575
N           0.44615         2.44001        -0.59415
C           0.17367         3.85190        -0.52357
H           1.20976         2.11387        -1.17125
H          -0.64718         3.99914         0.18893
H           1.05646         4.41321        -0.17815
H          -0.13884         4.25796        -1.49954

