%chk=imda-2_1_opt_dft.chk
%nprocshared=12
%mem=48GB
# wb97xd def2svp scrf=(iefpcm,solvent=toluene) opt=(calcfc,ts,noeigen,maxcycles=50,maxstep=10) 

 3g_exo_ts_6_reopt.out

0  1
C          -4.83460         3.78540         0.03650
C          -1.78650         3.97930         0.03840
C          -4.37290         3.35000         2.18850
C          -1.74870         3.34780         1.24250
C          -4.96310         2.41720         0.21440
C          -4.68950         2.15000         1.56060
C          -3.84140         3.66790         3.57520
H          -4.05760         4.70270         3.84910
H          -4.37330         3.07420         4.32040
C          -2.31420         3.41050         3.72460
H          -1.94840         3.84470         4.65530
H          -2.13740         2.34060         3.82840
C          -1.44690         3.90390         2.55970
O          -0.56280         4.73100         2.76370
H          -1.98140         2.29450         1.26630
H          -2.02030         3.41060        -0.84850
C          -1.52890         5.37180        -0.25220
O          -0.91140         5.71090        -1.25830
N          -4.59680         4.34330         1.26540
H          -4.46490         5.33090         1.44210
H          -4.96290         4.41270        -0.83560
Br         -2.35770         6.74740         0.94300
H          -5.21340         1.68810        -0.54580
H          -4.66990         1.17160         2.02080

