%chk=TS-92_opt_dft.chk
%nprocshared=12
%mem=48GB
# wb97xd def2svp scrf=(iefpcm,solvent=toluene) opt=(calcfc,ts,noeigen,maxcycles=50,maxstep=10) 

 TS-92.out

0  1
C          -0.87928        -0.55459        -0.05744
C          -2.31097        -0.56698         0.32688
O          -2.83902         0.06048         1.22807
C           0.05462         0.36056         0.34941
C          -1.20942         2.68407        -1.21470
H          -1.44793         3.29597        -0.34076
H          -0.91365         3.34572        -2.03408
H          -2.10567         2.13353        -1.51308
N          -0.12177         1.74670        -0.90187
H           0.12756         1.30557        -1.79100
H           0.70184         2.32093        -0.68976
C           1.51057        -0.08970         0.14733
C           1.95770        -0.60853        -1.08451
C           3.28398        -1.01261        -1.26810
C           4.19459        -0.90894        -0.22219
C           3.77842        -0.40340         1.00528
C           2.45111         0.00129         1.18729
H           1.27630        -0.69856        -1.92641
H           3.60229        -1.40804        -2.22904
H           5.22512        -1.22389        -0.36147
H           4.48414        -0.32546         1.82841
H           2.16858         0.37496         2.16756
C          -0.22294         1.22946         1.59871
H          -1.17748         1.76087         1.54145
H          -0.23226         0.60478         2.49917
H           0.54738         1.99946         1.72671
H          -0.61136        -1.35703        -0.73568
O          -2.94387        -1.43371        -0.51091
C          -4.34328        -1.55744        -0.25809
H          -4.75678        -2.26592        -0.98121
H          -4.51844        -1.94929         0.74876
H          -4.84479        -0.59384        -0.39285

