%chk=checkpoints/2b_gs_2_freq
%nprocshared=16
%mem=48GB
# m062x 6-31g(d) scrf=(iefpcm,solvent=benzene) freq=noraman

 *****

0  1
C          -0.85320         1.13540        -0.77950
H          -0.48170        -0.49880         0.46830
C           2.20600        -0.62640         0.25590
H           1.84230         1.00570        -0.99110
C          -0.04160         0.25110        -0.17550
C           1.39670         0.25780        -0.34840
H           3.27560        -0.59430         0.10590
H          -0.43300         1.89350        -1.42730
H           1.81870        -1.39580         0.90880
C          -2.35990         1.16130        -0.62440
H          -2.67950         2.11780        -0.21010
H          -2.84060         1.02510        -1.59340
H          -2.71060         0.37110         0.04080

