%chk=TS-325_opt_hf_freq.chk
%nprocshared=12
%mem=48GB
# wb97xd def2svp scrf=(iefpcm,solvent=toluene) freq=noraman

 TS-325_opt_hf.out

0  1
C           0.10075         0.10034        -0.11028
C          -0.33403         1.50255         0.04155
O          -1.34528         1.80627         0.68613
C          -0.84988        -0.89193         0.02535
C          -0.50725        -0.98043         2.85549
H          -0.76576        -0.58808         3.85167
H          -0.26029        -2.04728         2.94662
H           0.38549        -0.44710         2.49445
N          -1.56639        -0.79366         1.88564
H          -2.39190        -1.36703         2.05084
H          -1.82997         0.19534         1.78019
H          -0.51744        -1.93165         0.03423
Br         -2.58304        -0.80050        -0.84436
C           1.53113        -0.28010        -0.19137
C           2.52724         0.41346         0.52481
C           3.86440         0.03071         0.46149
C           4.25078        -1.06827        -0.30718
C           3.28104        -1.76882        -1.02294
C           1.94587        -1.37169        -0.97684
H           2.24334         1.26320         1.15033
H           4.61135         0.58891         1.03128
H           5.29904        -1.37127        -0.35182
H           3.56766        -2.62318        -1.64100
H           1.20628        -1.90558        -1.57896
N           0.44309         2.45437        -0.54213
C           0.18344         3.86682        -0.43273
H           1.20659         2.14303        -1.12798
H          -0.59796         4.01086         0.32300
H           1.08842         4.41255        -0.12391
H          -0.17402         4.29373        -1.38403

