%chk=TS-325_opt_sqm_reopt_freq.chk
%nprocshared=12
%mem=48GB
# wb97xd def2svp scrf=(iefpcm,solvent=toluene) freq=noraman

 TS-325_opt_sqm_reopt.out

0  1
C          -0.90912        -0.70553         0.18675
C          -2.28931        -0.46052         0.15144
O          -2.85664         0.64001         0.02844
C           0.04988         0.41225         0.27098
C          -0.80197         2.63711        -1.05717
H          -0.19078         3.33552        -0.47600
H          -0.91449         3.01793        -2.08086
H          -1.78387         2.48859        -0.59555
N          -0.14130         1.31934        -1.10937
H          -0.70386         0.67515        -1.67437
H           0.77298         1.39691        -1.56214
C           1.49455        -0.07379         0.16145
C           1.83911        -0.97872        -0.85528
C           3.15038        -1.41929        -1.01262
C           4.14917        -0.96795        -0.14947
C           3.82137        -0.07280         0.86551
C           2.50777         0.37432         1.01604
H           1.05860        -1.35363        -1.52188
H           3.39175        -2.12628        -1.80944
H           5.17774        -1.31580        -0.26667
H           4.59286         0.28403         1.55142
H           2.28156         1.07316         1.82159
C          -0.18491         1.36885         1.43873
H          -1.24386         1.64961         1.47135
H           0.04553         0.82445         2.36394
H           0.43664         2.27732         1.41011
H          -0.54339        -1.72913         0.23806
O          -3.05098        -1.59948         0.22236
C          -4.43981        -1.42624         0.09871
H          -4.88756        -2.42620         0.17327
H          -4.84740        -0.78277         0.89452
H          -4.71493        -0.97465        -0.86857

