%chk=TS-325_opt_dft_freq.chk
%nprocshared=12
%mem=48GB
# wb97xd def2svp scrf=(iefpcm,solvent=toluene) freq=noraman

 TS-325_opt_dft.out

0  1
C           0.10077         0.10034        -0.11019
C          -0.33411         1.50253         0.04147
O          -1.34541         1.80618         0.68600
C          -0.84987        -0.89193         0.02555
C          -0.50737        -0.97992         2.85561
H          -0.76597        -0.58732         3.85167
H          -0.26042        -2.04674         2.94702
H           0.38538        -0.44666         2.49450
N          -1.56648        -0.79341         1.88564
H          -2.39191        -1.36686         2.05098
H          -1.83025         0.19551         1.78008
H          -0.51738        -1.93165         0.03449
Br         -2.58293        -0.80066        -0.84437
C           1.53116        -0.28010        -0.19127
C           2.52727         0.41345         0.52490
C           3.86443         0.03071         0.46155
C           4.25081        -1.06827        -0.30713
C           3.28105        -1.76883        -1.02287
C           1.94588        -1.37169        -0.97674
H           2.24338         1.26318         1.15044
H           4.61139         0.58890         1.03133
H           5.29906        -1.37127        -0.35179
H           3.56766        -2.62319        -1.64093
H           1.20628        -1.90558        -1.57884
N           0.44295         2.45434        -0.54234
C           0.18338         3.86681        -0.43305
H           1.20657         2.14295        -1.12799
H          -0.59871         4.01084         0.32198
H           1.08813         4.41244        -0.12335
H          -0.17316         4.29383        -1.38464

