%chk=TS-325_opt_sqm_re2_freq.chk
%nprocshared=12
%mem=48GB
# wb97xd def2svp scrf=(iefpcm,solvent=toluene) freq=noraman

 TS-325_opt_sqm_re2.out

0  1
C           0.10075         0.10034        -0.11038
C          -0.33413         1.50249         0.04174
O          -1.34520         1.80598         0.68670
C          -0.84984        -0.89199         0.02515
C          -0.50687        -0.98130         2.85518
H          -0.76524        -0.58945         3.85158
H          -0.25987        -2.04815         2.94574
H           0.38582        -0.44772         2.49428
N          -1.56617        -0.79405         1.88556
H          -2.39177        -1.36728         2.05087
H          -1.82960         0.19502         1.78040
H          -0.51737        -1.93171         0.03382
Br         -2.58307        -0.80039        -0.84435
C           1.53116        -0.27998        -0.19149
C           2.52718         0.41351         0.52489
C           3.86435         0.03081         0.46163
C           4.25086        -1.06796        -0.30730
C           3.28121        -1.76840        -1.02327
C           1.94601        -1.37137        -0.97717
H           2.24319         1.26317         1.15046
H           4.61122         0.58887         1.03166
H           5.29915        -1.37085        -0.35196
H           3.56792        -2.62260        -1.64152
H           1.20650        -1.90518        -1.57946
N           0.44265         2.45446        -0.54215
C           0.18305         3.86688        -0.43231
H           1.20617         2.14327        -1.12805
H           1.08828         4.41266        -0.12454
H          -0.17563         4.29388        -1.38309
H          -0.59746         4.01074         0.32453

