%nprocshared=12
%mem=48GB
# external="~/scripts/MiMe -H 'pbepbe def2svp' -EF 'wb97xd def2svp' -c 12 -m 48GB" opt=(calcall,ts,noeigen,maxcycles=50,maxstep=10,nomicro) 

 TS-325.out

0  1
C           0.06177         0.16222        -0.05987
C          -0.40074         1.45584         0.53163
O          -1.15429         1.50254         1.49781
C          -0.85367        -0.80502        -0.34582
C          -0.17766        -2.94069         1.77398
H          -0.63118        -3.30064         2.70180
H          -0.07938        -3.77989         1.08005
H           0.82018        -2.55382         1.99723
N          -1.00546        -1.89012         1.17544
H          -1.95493        -2.27180         1.08650
H          -1.12869        -1.16360         1.89783
H          -0.54188        -1.70552        -0.88485
Br         -2.67790        -0.38746        -0.76480
C           1.50834        -0.10668        -0.22143
C           2.39043         0.13335         0.84219
C           3.76031        -0.09450         0.69505
C           4.26366        -0.56034        -0.51778
C           3.39924        -0.79839        -1.58439
C           2.02876        -0.57131        -1.43866
H           2.01427         0.49002         1.79960
H           4.43291         0.08937         1.52903
H           5.33005        -0.73910        -0.63114
H           3.79175        -1.16099        -2.53110
H           1.37285        -0.75516        -2.28698
N           0.13935         2.56268        -0.08207
C          -0.10745         3.88962         0.41632
H           0.84287         2.43119        -0.79729
H          -1.14152         3.98435         0.75836
H           0.57131         4.07921         1.25198
H           0.08687         4.60465        -0.38633

