%chk=checkpoints/1c_gs_2_freq
%nprocshared=16
%mem=48GB
# m062x 6-31g(d) scrf=(iefpcm,solvent=benzene) freq=noraman

 *****

0  1
H          -0.55610         0.24680         0.22290
C          -0.28940         2.33770         0.35290
H          -1.72450         1.24310        -0.79290
C          -0.89380         1.22140        -0.10080
H           0.53860         2.27480         1.04450
C          -0.67000         3.69070        -0.02320
O          -0.07600         4.66320         0.42830
C          -1.82120         3.92760        -0.99120
H          -1.60860         3.45840        -1.95020
H          -2.74450         3.51840        -0.58480
H          -1.95670         4.99700        -1.15090

