%chk=checkpoints/2g_gs_2_opt
%nprocshared=16
%mem=48GB
# m062x 6-31g(d) scrf=(iefpcm,solvent=benzene) opt=(maxcycles=50,maxstep=10)

 *****

0  1
C          -0.86510         1.05150         0.29440
H          -3.83300        -0.56670        -1.59840
C          -3.41910        -1.09310        -0.75040
H          -3.85960        -2.04090        -0.48190
N          -1.83570         0.60460        -0.38850
C          -2.39220        -0.58280        -0.05690
H          -1.99700        -1.13450         0.79090
H          -0.42780         0.54450         1.15220
C          -0.21680         2.37020        -0.04170
H           0.59640         2.59310         0.64760
H           0.18990         2.35250        -1.05260
H          -0.94240         3.18130         0.01520

