%chk=checkpoints/2h_gs_2_opt
%nprocshared=16
%mem=48GB
# m062x 6-31g(d) scrf=(iefpcm,solvent=benzene) opt=(maxcycles=50,maxstep=10)

 *****

0  1
O          -2.68130         1.92060        -0.45780
H          -1.16540         0.94320         0.45420
C          -2.13100        -1.52760         0.20800
C          -2.72810        -0.40410        -0.23120
C          -2.12960         0.90080        -0.05410
H          -1.17310        -1.48260         0.71260
H          -3.68240        -0.41840        -0.73730
C          -2.71570        -2.91560         0.04710
H          -2.04030        -3.54550        -0.53250
H          -2.86780        -3.37720         1.02320
H          -3.67770        -2.89110        -0.46730

