%chk=checkpoints/2i_gs_2_opt
%nprocshared=16
%mem=48GB
# m062x 6-31g(d) scrf=(iefpcm,solvent=benzene) opt=(maxcycles=50,maxstep=10)

 *****

0  1
O          -2.78510         1.91080        -0.38070
H          -1.07060         0.87840        -0.17240
C          -2.04820        -1.52680         0.21170
C          -2.80610        -0.43160         0.01230
C          -2.16110         0.86720        -0.19270
H          -0.96690        -1.49270         0.22790
H          -2.50510        -2.49420         0.36490
C          -4.33010        -0.45990        -0.01400
H          -4.74040         0.18640         0.76400
H          -4.72090        -1.46520         0.14700
H          -4.70500        -0.10580        -0.97590

