%chk=BPA_TS_1_opt_dft.chk
%nprocshared=12
%mem=48GB
# wb97xd def2svp scrf=(iefpcm,solvent=toluene) opt=(calcfc,ts,noeigen,maxcycles=50,maxstep=10) 

 Structure2

0  1
C          -2.11090         0.67710        -2.71090
C          -1.21380        -0.20600        -3.44090
C          -0.71440        -2.46550        -4.54670
C          -2.60620        -3.84100        -2.06680
O           0.06580         0.16710        -3.59660
H          -0.62120        -3.39260        -3.98360
H           0.29650        -2.08220        -4.68320
H          -1.10850        -2.71100        -5.53310
O          -1.83390        -4.79500        -1.93780
O          -3.90590        -3.90960        -2.43300
C          -4.50870        -5.17140        -2.67970
H          -4.47710        -5.80170        -1.78940
H          -5.55300        -5.03570        -2.96170
H          -4.00280        -5.69700        -3.49130
Si          0.70490         1.05680        -4.86860
C           2.35210         0.26780        -5.30430
H           2.76210         0.69780        -6.21690
H           3.07850         0.42400        -4.50890
H           2.24550        -0.80450        -5.45940
C          -0.44580         0.92280        -6.34920
H          -0.06830         1.49550        -7.19480
H          -1.43870         1.29880        -6.10570
H          -0.55440        -0.11340        -6.66550
C           0.95020         2.87740        -4.30320
C           1.50760         2.91310        -2.86380
H           1.65400         3.93360        -2.50740
H           0.83180         2.41770        -2.16500
H           2.47020         2.40510        -2.79160
C           1.94770         3.60510        -5.23130
H           2.93090         3.13310        -5.21590
H           2.08890         4.64570        -4.93460
H           1.60260         3.60870        -6.26630
C          -0.38370         3.65500        -4.34400
H          -0.26090         4.68650        -4.01090
H          -0.79550         3.69270        -5.35330
H          -1.13960         3.19840        -3.70640
C          -2.15410        -2.35740        -1.83990
C          -1.62760        -1.44060        -3.86130
C          -3.41780         0.40780        -2.45480
O          -2.95820        -1.47620        -1.44020
H          -1.06760        -2.26910        -1.78550
C          -4.27350         1.25900        -1.53360
H          -1.67370         1.54890        -2.24670
H          -2.68990        -1.65990        -3.96220
C           1.69650        -3.93610        -1.35880
C           2.48950        -3.29730        -2.30540
C           2.61150        -1.91480        -2.29860
C           1.94740        -1.15100        -1.34310
H           1.58930        -5.01160        -1.37950
H           3.00710        -3.87780        -3.05580
H           3.22360        -1.42920        -3.04390
H           2.04030        -0.07540        -1.37410
C           1.00830        -3.18510        -0.37350
C           1.13820        -1.76290        -0.34120
C           0.43720        -1.01890         0.66910
C          -0.44390        -1.70050         1.53180
C          -0.56690        -3.09770         1.49450
C           0.17290        -3.82360         0.56340
O          -1.19440        -0.98210         2.42660
H           0.08090        -4.90000         0.52780
C           0.90730         3.27660         0.73670
C          -0.35330         2.71700         0.54620
C          -0.51240         1.32510         0.61300
C           0.60120         0.47530         0.77630
H           1.02450         4.35000         0.69860
O          -1.75890         0.77470         0.44970
C           1.88760         1.05410         1.04700
C           2.03300         2.47460         1.01200
C           3.30240         3.05940         1.25060
C           4.40500         2.26060         1.53530
C           4.27460         0.87940         1.59310
C           3.04210         0.27670         1.35780
H           3.40800         4.13440         1.21900
H           5.36720         2.71590         1.72230
H           5.13510         0.26840         1.82610
H           2.96200        -0.79880         1.41780
C          -3.22020        -5.20880         4.11990
C          -2.36090        -4.24340         4.63780
C          -1.49960        -3.55850         3.78460
C          -1.49040        -3.82900         2.41080
C          -2.36310        -4.80280         1.90700
C          -3.22530        -5.49150         2.75660
H          -3.89290        -5.73640         4.78070
H          -2.36550        -4.01910         5.69460
H          -0.84050        -2.80490         4.19210
H          -2.38270        -5.02050         0.84880
H          -3.89940        -6.23570         2.35850
P          -2.32050        -0.02390         1.74990
O          -3.02160         0.84100         2.73260
O          -3.30610        -1.08780         1.05270
H          -3.24590        -1.03600         0.07110
C          -3.63870         5.31440        -0.33830
C          -3.66510         4.54100         0.81950
C          -2.59360         3.70150         1.11200
C          -1.49600         3.62250         0.24980
C          -1.47680         4.41800        -0.90080
C          -2.54590         5.25880        -1.19990
H          -4.47150         5.96380        -0.56680
H          -4.51040         4.58630         1.49120
H          -2.61610         3.11500         2.01780
H          -0.63270         4.37430        -1.57160
H          -2.52810         5.86160        -2.09610
H          -3.98070        -0.36070        -2.97610
H          -4.65010         0.66340        -0.70200
H          -3.70700         2.09120        -1.11390
H          -5.12340         1.67120        -2.07670

