%chk=imda-1_1_opt_dft_re_freq.chk
%nprocshared=12
%mem=48GB
# wb97xd def2svp scrf=(iefpcm,solvent=toluene) freq=noraman

 imda-1_1_opt_dft_re.out

0  1
C          -2.46690         0.31491        -0.21954
C           0.98842         1.27209         1.11661
C          -0.91870        -1.47844        -0.04070
C           1.36775        -0.00253         1.09879
C          -2.67217        -0.35000         0.93922
C          -1.71972        -1.45737         1.04684
C           0.22744        -2.40402        -0.32208
H           0.46345        -2.97823         0.58817
H          -0.07417        -3.14891        -1.07879
C           1.48781        -1.71459        -0.85706
H           2.26109        -2.45179        -1.11991
H           1.25097        -1.19005        -1.80031
C           2.16470        -0.66378         0.00852
O           3.31396        -0.34882        -0.18971
H           1.05861        -0.62848         1.94101
H           0.41370         1.71002         1.93385
C          -1.34662        -0.36431        -0.95944
H          -1.68754        -0.75410        -1.93666
H          -0.53003         0.34420        -1.18321
Cl          1.28393         2.38384        -0.18770
C          -3.17188         1.52417        -0.73981
H          -2.46540         2.35915        -0.87980
H          -3.96084         1.85543        -0.05012
H          -3.63445         1.32977        -1.72131
H          -1.65160        -2.13991         1.89675
H          -3.42313        -0.09861         1.69072

