%chk=imda-1_1_opt_hf_re_freq.chk
%nprocshared=12
%mem=48GB
# wb97xd def2svp scrf=(iefpcm,solvent=toluene) freq=noraman

 imda-1_1_opt_hf_re.out

0  1
C          -2.46725         0.31575        -0.21956
C           0.98954         1.27186         1.11662
C          -0.91951        -1.47799        -0.04050
C           1.36800        -0.00302         1.09865
C          -2.67275        -0.34902         0.93924
C          -1.72056        -1.45661         1.04701
C           0.22631        -2.40401        -0.32179
H           0.46222        -2.97808         0.58858
H          -0.07566        -3.14899        -1.07826
C           1.48687        -1.71519        -0.85710
H           2.25972        -2.45276        -1.12014
H           1.25002        -1.19055        -1.80030
C           2.16446        -0.66469         0.00829
O           3.31384        -0.35030        -0.19018
H           1.05842        -0.62886         1.94079
H           0.41510         1.71007         1.93390
C          -1.34706        -0.36379        -0.95932
H          -1.68796        -0.75350        -1.93657
H          -0.53024         0.34450        -1.18300
Cl          1.28584         2.38356        -0.18754
C          -3.17206         1.52502        -0.74004
H          -2.46544         2.35979        -0.88052
H          -3.96075         1.85670        -0.05024
H          -3.63496         1.33039        -1.72134
H          -1.65269        -2.13912         1.89696
H          -3.42373        -0.09743         1.69065

