%chk=TS-898_opt_sqm_re_freq.chk
%nprocshared=12
%mem=48GB
# wb97xd def2svp scrf=(iefpcm,solvent=toluene) freq=noraman

 TS-898_opt_sqm_re.out

0  1
C           0.58897        -0.47546         0.15235
C           1.83159         0.04201        -0.36722
O           1.95851         0.88113        -1.26663
C          -0.65101        -0.02301        -0.35310
C          -0.68347         2.14264         1.28301
H          -1.01192         2.55021         2.24802
H           0.36689         1.82197         1.35147
H          -0.77038         2.91524         0.51043
N          -1.47462         0.97617         0.90009
H          -1.58535         0.32782         1.68165
H          -2.41481         1.21807         0.58100
Cl         -1.99897        -1.30276        -0.42946
C          -0.76341         0.83851        -1.58413
H          -0.12801         1.72546        -1.49136
H          -0.38280         0.27593        -2.44631
H          -1.81136         1.11091        -1.77264
C           0.61055        -1.43935         1.32112
H          -0.39360        -1.83471         1.52957
H           1.24720        -2.31894         1.13280
H           0.98331        -0.97997         2.25581
C           3.10761        -0.51537         0.26411
H           3.96803        -0.02076        -0.20353
H           3.13627        -0.34386         1.35134
H           3.18828        -1.60256         0.10823

