%chk=TS-898_opt_sqm_reopt_freq.chk
%nprocshared=12
%mem=48GB
# wb97xd def2svp scrf=(iefpcm,solvent=toluene) freq=noraman

 TS-898_opt_sqm_reopt.out

0  1
C          -0.58899        -0.47545        -0.15233
C          -1.83161         0.04201         0.36730
O          -1.95843         0.88104         1.26680
C           0.65099        -0.02299         0.35312
C           0.68350         2.14256        -1.28313
H           1.01255         2.55046        -2.24779
H          -0.36677         1.82174        -1.35233
H           0.76982         2.91494        -0.51029
N           1.47456         0.97608        -0.90007
H           1.58530         0.32766        -1.68163
H           2.41489         1.21806        -0.58093
Cl          1.99896        -1.30275         0.42947
C           0.76342         0.83856         1.58412
H           0.12773         1.72532         1.49149
H           0.38314         0.27589         2.44639
H           1.81136         1.11116         1.77245
C          -0.61058        -1.43924        -1.32118
H           0.39358        -1.83450        -1.52979
H          -1.24726        -2.31883        -1.13285
H          -0.98343        -0.97984        -2.25581
C          -3.10758        -0.51532        -0.26415
H          -3.96803        -0.02149         0.20419
H          -3.13657        -0.34277        -1.35125
H          -3.18784        -1.60271        -0.10946

