%nprocshared=12
%mem=48GB
# external="~/scripts/MiMe -H 'wb97xd def2svp' -EF 'wb97xd def2svp' -c 12 -m 48GB" opt=(calcall,ts,noeigen,maxcycles=50,maxstep=10,nomicro) 

 *****

0  1
C           1.92600         0.17220        -0.00500
C           0.73320        -1.56100         0.26780
C           0.41120         1.25550         1.07500
C          -0.53100        -1.05860         0.82930
N           1.70250         0.73640         1.29980
H           0.66640        -1.95570        -0.75310
H           1.32970        -2.16460         0.95850
H          -0.25930         1.66080         1.81950
H          -0.68480        -1.08750         1.90350
O           1.20510         0.83340        -1.03060
C           0.21360         1.51190        -0.36660
O          -0.68340         2.17310        -0.85370
C          -1.74110        -0.94460        -0.01860
O          -1.79380        -1.28700        -1.18700
O          -2.70580        -0.32990         0.70410
C          -3.86400        -0.00870        -0.06960
H          -4.60460         0.44070         0.59720
H          -4.29850        -0.91120        -0.51230
H          -3.60990         0.72000        -0.84710
C           3.22670        -0.34900        -0.33330
N           4.27640        -0.78670        -0.56700
H           2.01400         0.28300         2.15220

