%chk=imda-2_1_opt_hf_freq.chk
%nprocshared=12
%mem=48GB
# wb97xd def2svp scrf=(iefpcm,solvent=toluene) freq=noraman

 imda-2_1_opt_hf.out

0  1
C          -2.05534        -2.09438        -0.33713
C           0.38593        -0.58464         1.61263
C          -2.05539         0.12509        -0.67653
C          -0.28190         0.57512         1.56816
C          -3.06223        -1.56669         0.44363
C          -3.06481        -0.16141         0.22793
C          -1.54737         1.43916        -1.19063
H          -0.72342         1.26096        -1.89748
H          -2.33616         1.95457        -1.76000
C          -1.07024         2.38972        -0.08104
H          -0.69990         3.33354        -0.50453
H          -1.92600         2.63453         0.57310
C           0.02071         1.85020         0.82237
O           1.03587         2.46062         1.05486
H          -1.15213         0.65662         2.22819
H           0.06165        -1.35242         2.32018
C           1.56976        -1.03290         0.85738
O           2.28660        -1.91666         1.18218
N          -1.47197        -1.06199        -1.01708
H          -0.66360        -1.14589        -1.62076
H          -1.72547        -3.12055        -0.47845
Br          1.92324        -0.14893        -0.88273
H          -3.72920        -2.13146         1.09155
H          -3.72969         0.56910         0.68627

