%chk=imda-2_1_opt_sqm_re_freq.chk
%nprocshared=12
%mem=48GB
# wb97xd def2svp scrf=(iefpcm,solvent=toluene) freq=noraman

 imda-2_1_opt_sqm_re.out

0  1
C          -2.05155        -2.09244        -0.34033
C           0.37938        -0.58662         1.61226
C          -2.05063         0.12703        -0.67979
C          -0.28289         0.57642         1.56871
C          -3.05800        -1.56424         0.44065
C          -3.05996        -0.15898         0.22496
C          -1.54160         1.44074        -1.19369
H          -0.71694         1.26199        -1.89953
H          -2.32947         1.95640        -1.76412
C          -1.06539         2.39121        -0.08375
H          -0.69266         3.33424        -0.50694
H          -1.92222         2.63802         0.56828
C           0.02224         1.85149         0.82364
O           1.03534         2.46310         1.06177
H          -1.15097         0.66194         2.23115
H           0.05205        -1.35267         2.32027
C           1.55793        -1.04256         0.85386
O           2.26385        -1.93778         1.17126
N          -1.46785        -1.06029        -1.02045
H          -0.66024        -1.14467        -1.62514
H          -1.72224        -3.11876        -0.48180
Br          1.92504        -0.14607        -0.87700
H          -3.72494        -2.12869         1.08887
H          -3.72428         0.57184         0.68358

