%chk=da-1_1_opt_dft_re2_freq.chk
%nprocshared=12
%mem=48GB
# wb97xd def2svp scrf=(iefpcm,solvent=toluene) freq=noraman

 da-1_1_opt_dft_re2.out

0  1
O          -1.70730         1.23489         0.56375
C           1.48018         1.80646        -0.03493
C          -1.94076        -1.61942         0.42627
C           1.45856         0.48040         0.13040
C          -2.25456         0.68943        -0.36680
C          -2.36492        -0.78124        -0.52487
H          -2.71719         1.29357        -1.18314
H          -1.50559        -1.22989         1.35153
H          -2.81620        -1.15015        -1.45047
H           0.59554         2.41310         0.17180
H           2.38366         2.31983        -0.38196
H           0.55843        -0.03470         0.47698
C           2.64613        -0.34760        -0.14963
O           2.68582        -1.54767        -0.02399
H          -2.01751        -2.70306         0.31502
H           3.54287         0.22543        -0.50040

