%chk=da-1_1_opt_dft_reopt2_freq.chk
%nprocshared=12
%mem=48GB
# wb97xd def2svp scrf=(iefpcm,solvent=toluene) freq=noraman

 da-1_1_opt_dft_reopt2.out

0  1
O          -2.30421         1.23773         0.09885
C           1.47027         1.90974         0.25535
C          -1.79972        -1.52974         0.64498
C           1.44516         0.60787         0.55660
C          -1.70296         0.53932        -0.68213
C          -1.39806        -0.89685        -0.46101
H          -1.32965         0.95987        -1.64741
H          -2.37134        -0.99136         1.40681
H          -0.82184        -1.41251        -1.23455
H           0.93702         2.65082         0.85478
H           2.02546         2.27659        -0.61481
H           0.89203         0.21865         1.41617
C           2.14946        -0.38013        -0.28440
O           2.12005        -1.57290        -0.10382
H          -1.56980        -2.58285         0.81990
H           2.72646         0.06101        -1.13747

