%nprocshared=12
%mem=48GB
# external="~/scripts/MiMe -H 'hf 6-31g(d)' -EF 'wb97xd def2svp' -c 12 -m 48GB" opt=(calcall,ts,noeigen,maxcycles=50,maxstep=10,nomicro) 

 TS-68_hf_1.out

0  1
C          -0.80268        -0.06557        -0.13490
C          -2.00255        -0.71618        -0.51948
O          -2.18494        -1.93686        -0.46177
C           0.28674        -0.86285         0.38713
C          -1.01166        -1.41592         2.54774
H          -0.78556        -2.06270         3.40369
H          -1.66502        -0.59687         2.86623
H          -1.52142        -1.97853         1.75296
N           0.25268        -0.85740         1.99862
H           0.33051         0.13442         2.24626
H           1.08166        -1.32381         2.37762
C           1.71385        -0.55771        -0.01280
C           2.47170         0.47753         0.54667
C           3.77376         0.72276         0.11017
C           4.33427        -0.05756        -0.89768
C           3.58477        -1.08682        -1.46776
C           2.28891        -1.33519        -1.02549
H           2.04616         1.13202         1.31163
H           4.34715         1.53888         0.55502
H           5.35190         0.13797        -1.24217
H           4.01325        -1.70223        -2.26169
H           1.70236        -2.13787        -1.47968
H           0.04432        -1.90739         0.14589
Br         -0.70596         1.82519         0.09360
O          -2.97683         0.10736        -0.97107
C          -4.17417        -0.51486        -1.37245
H          -4.84949         0.29071        -1.68720
H          -4.00781        -1.20949        -2.21015
H          -4.63164        -1.08490        -0.54875

