%nprocshared=12
%mem=48GB
# external="~/scripts/MiMe -H 'hf 6-31g(d)' -EF 'wb97xd def2svp' -c 12 -m 48GB" opt=(calcall,ts,noeigen,maxcycles=50,maxstep=10,nomicro) 

 TS-898_hf.out

0  1
C          -0.60489        -0.42551        -0.19345
C          -1.84959         0.05625         0.36025
O          -1.97034         0.86840         1.28011
C           0.63397         0.00702         0.33123
C           0.80738         2.11837        -1.28247
H           1.17383         2.48248        -2.25106
H          -0.26468         1.87784        -1.34611
H           0.95485         2.88895        -0.51730
N           1.49944         0.89306        -0.88129
H           1.55775         0.22558        -1.65323
H           2.45551         1.05110        -0.55483
Cl          1.96951        -1.33365         0.48416
C           0.73299         0.86937         1.56333
H           0.10302         1.76068         1.46468
H           0.32942         0.31085         2.41662
H           1.78109         1.12966         1.77247
C          -0.61393        -1.36407        -1.38222
H           0.38747        -1.78243        -1.56673
H          -1.26943        -2.23553        -1.22522
H          -0.95529        -0.88745        -2.32151
C          -3.12615        -0.49956        -0.27146
H          -3.19993        -1.58862        -0.12411
H          -3.98366        -0.01342         0.20944
H          -3.16357        -0.31756        -1.35688

