%chk=BPA_TS_2_opt_hf_re2_freq.chk
%nprocshared=12
%mem=48GB
# wb97xd def2svp scrf=(iefpcm,solvent=toluene) freq=noraman

 BPA_TS_2_opt_hf_re2.out

0  1
C          -0.85189         0.67477        -2.39809
C          -0.80658         1.84188        -1.54845
C           0.09870         4.03473        -0.73294
C           2.76388         2.91642        -0.97463
O          -1.67893         1.90864        -0.54985
H           0.18687         3.75283         0.32852
H          -0.85909         4.56370        -0.85096
H           0.89873         4.75033        -0.96215
O           3.14381         3.38435         0.06942
O           3.11833         3.37006        -2.16940
C           4.01222         4.47460        -2.19000
H           4.18447         4.70937        -3.24539
H           3.57260         5.34039        -1.67430
H           4.96086         4.21432        -1.69990
Si         -3.39074         1.73593        -0.46696
C          -4.04406         1.18959        -2.13309
H          -5.14079         1.29664        -2.13939
H          -3.64083         1.80970        -2.94816
H          -3.80824         0.13985        -2.35703
C          -3.74478         0.49180         0.87456
H          -3.60354         0.91728         1.87899
H          -3.08367        -0.38056         0.77480
H          -4.78573         0.13925         0.80318
C          -4.06110         3.45481        -0.02426
C          -3.87928         4.40750        -1.21626
H          -4.21046         5.42571        -0.94863
H          -2.82748         4.47697        -1.53503
H          -4.47057         4.08886        -2.08895
C          -5.55968         3.32818         0.30134
H          -6.13920         2.93189        -0.54827
H          -5.97987         4.31871         0.54721
H          -5.73916         2.67250         1.16825
C          -3.31933         4.00355         1.20377
H          -3.68565         5.01451         1.45293
H          -3.48230         3.36985         2.09006
H          -2.23447         4.06586         1.03439
C           1.87225         1.68778        -1.05665
C           0.17507         2.82569        -1.62759
C          -0.05168         0.45413        -3.46162
O           2.14992         0.83872        -1.93316
H           1.46221         1.39782        -0.07589
C          -0.01100        -0.83413        -4.20539
H          -1.51889        -0.12765        -2.07205
H           0.66081         2.94130        -2.59783
C           1.79831         2.68785         3.04725
C           0.58941         3.23062         3.40248
C          -0.59907         2.48640         3.21072
C          -0.55498         1.22045         2.68082
H           2.72103         3.26036         3.15876
H           0.53885         4.23854         3.81923
H          -1.56118         2.92729         3.47762
H          -1.47835         0.66672         2.52169
C           1.87433         1.38068         2.49395
C           0.68307         0.62171         2.31905
C           0.77482        -0.68991         1.74025
C           2.00111        -1.12240         1.27172
C           3.19919        -0.36040         1.40513
C           3.11175         0.85423         2.04534
O           2.07525        -2.34269         0.64766
H           4.01126         1.45921         2.17265
C          -2.80106        -3.00434         1.12974
C          -1.98661        -2.71462         0.05965
C          -0.76949        -2.02077         0.32109
C          -0.42522        -1.55828         1.57845
H          -3.74366        -3.52898         0.95599
O           0.06053        -1.75122        -0.73853
C          -1.24353        -1.93346         2.69572
C          -2.44604        -2.65805         2.45860
C          -3.27252        -3.01963         3.55788
C          -2.91324        -2.69893         4.84303
C          -1.70025        -2.01028         5.08425
C          -0.88733        -1.63820         4.04131
H          -4.19683        -3.56761         3.35958
H          -3.55209        -2.98479         5.68113
H          -1.40406        -1.77919         6.10957
H           0.04986        -1.11899         4.24435
C           6.93522        -1.60560        -0.30818
C           6.47257        -0.30256        -0.48317
C           5.25703         0.08716         0.07476
C           4.48458        -0.81837         0.81503
C           4.95869        -2.12661         0.98432
C           6.17526        -2.51413         0.42873
H           7.88544        -1.91521        -0.74881
H           7.05627         0.41443        -1.06458
H           4.89143         1.10558        -0.07448
H           4.37030        -2.84582         1.55520
H           6.53127        -3.53671         0.57128
P           1.49191        -2.54135        -0.86150
O           1.42095        -3.97437        -1.18741
O           2.28374        -1.63196        -1.84018
H           2.16390        -0.60519        -1.80940
C          -3.33559        -3.52493        -3.93818
C          -2.10570        -4.02513        -3.50928
C          -1.64841        -3.77293        -2.21727
C          -2.42578        -3.01567        -1.33086
C          -3.66712        -2.52959        -1.76439
C          -4.11850        -2.77732        -3.06017
H          -3.68450        -3.72061        -4.95449
H          -1.48915        -4.61798        -4.18840
H          -0.68017        -4.16364        -1.89778
H          -4.27865        -1.93834        -1.07815
H          -5.08378        -2.38116        -3.38341
H           0.61062         1.24645        -3.81982
H          -0.15401        -0.67121        -5.28503
H           0.98235        -1.29370        -4.07688
H          -0.76561        -1.54374        -3.83939

