%chk=boscalid_OPLS3e_1_opt_hess.chk
%nprocshared=12
%mem=48GB
# m062x 6-31g(d) scrf=(iefpcm,solvent=benzene) opt=(calcfc,maxcycles=50,maxstep=10) freq=noraman

 Structure193

0  1
C           1.11810         0.13840         0.40050
C           0.91090         0.19940         1.78270
C          -0.35680         0.46800         2.29410
C          -1.42390         0.67060         1.42320
C          -1.23440         0.60120         0.04590
C           0.03340         0.33070        -0.46260
H           1.73890         0.05040         2.46090
H          -0.51490         0.52150         3.36120
Cl         -2.99270         1.00660         2.05570
H          -2.06930         0.75180        -0.62300
H           0.17410         0.25950        -1.53230
C           5.01550        -0.79870        -1.15350
C           4.36240        -1.67100        -0.28900
C           3.10490        -1.33990         0.20940
C           2.47840        -0.13770        -0.14480
C           3.14890         0.75490        -1.01240
C           4.41540         0.40600        -1.51290
H           5.98990        -1.05090        -1.54650
H           4.82690        -2.60610        -0.01030
H           2.60200        -2.03420         0.86770
N           2.51260         1.97960        -1.30810
H           4.96140         1.05410        -2.17990
H           1.61520         2.08740        -0.86460
C           2.90900         3.02100        -2.06380
O           3.97460         3.10950        -2.66800
C           0.22040         6.32600        -2.13830
C           1.50940         6.51620        -1.64350
C           2.38070         5.42680        -1.62150
C           1.94760         4.17400        -2.07870
C           0.63810         4.07250        -2.59030
N          -0.21390         5.13080        -2.60710
H          -0.48900         7.14140        -2.17690
H           1.83090         7.48570        -1.29050
H           3.39110         5.55560        -1.25430
Cl          0.01550         2.59630        -3.24950

