%chk=nakano_OPLS3e_1_opt_hess.chk
%nprocshared=12
%mem=48GB
# m062x 6-31g(d) scrf=(iefpcm,solvent=benzene) opt=(calcfc,maxcycles=50,maxstep=10) freq=noraman

 Structure1

0  1
C           0.65920         6.94140        -2.13060
C          -0.01840         5.77330        -1.70490
C          -1.35140         5.84450        -1.26140
C          -2.01550         7.06780        -1.25470
C           0.78210         4.46180        -1.67140
H          -3.04030         7.11540        -0.91560
C          -1.36310         8.26320        -1.60900
C           0.00020         8.21630        -2.02860
C           0.64560         9.45760        -2.31300
C          -0.04040        10.66560        -2.22500
C          -1.37530        10.69030        -1.84500
C          -2.03810         9.50790        -1.53410
H           1.68560         9.46810        -2.60390
H           0.46980        11.59060        -2.45290
H          -1.89680        11.63460        -1.77980
H          -3.07180         9.53440        -1.22080
C           4.75050         6.73570        -3.54500
C           2.08320         6.86140        -2.63980
C           3.10010         6.31200        -1.82670
C           4.42610         6.24680        -2.28350
H           5.77380         6.68790        -3.88870
C           2.65850         5.64470        -0.52140
C           3.76480         7.24620        -4.41120
C           2.40590         7.29130        -3.97450
C           1.42780         7.74810        -4.90820
C           1.78980         8.17590        -6.18230
C           3.11980         8.15630        -6.57970
C           4.10430         7.69430        -5.71290
H           0.38490         7.76550        -4.62810
H           1.03010         8.52420        -6.86760
H           3.38760         8.49080        -7.57180
H           5.13550         7.66390        -6.03420
H           3.49050         5.53470         0.17020
H           2.01020         6.34610         0.00670
N           1.89970         4.39600        -0.70940
H           1.18740         4.30570        -2.67340
H           0.10160         3.62310        -1.53330
N           1.95190         2.01690        -0.64490
C           2.46820         3.12080        -0.39040
N           3.69980         3.10890         0.25590
H           1.06070         2.14220        -1.09630
H           4.40870         3.65190        -0.20860
H           4.02820         2.16650         0.37380
C          -3.48880         2.39360         0.17430
C          -3.94570         3.10600        -0.94100
C          -3.25530         4.22310        -1.40490
C          -2.09060         4.65150        -0.76410
C          -1.63860         3.95290         0.35850
C          -2.32640         2.83350         0.81810
H          -4.83180         2.78220        -1.46640
H          -3.61800         4.75070        -2.27510
H          -0.74370         4.27680         0.87180
H          -1.95470         2.31370         1.68890
C           7.50140         4.37680         0.06660
C           7.06010         3.79820        -1.12940
C           6.07240         4.41220        -1.89450
C           5.50230         5.61610        -1.47660
C           5.94850         6.20760        -0.29340
C           6.93500         5.59130         0.47190
H           7.47230         2.85700        -1.46340
H           5.73470         3.94360        -2.80870
H           5.52490         7.14670         0.03370
H           7.26960         6.07100         1.38010
C          -5.59740        -1.06790         1.58440
C          -4.20550        -1.05280         1.59820
C          -3.52390         0.07240         1.14080
C          -4.22300         1.19010         0.66510
C          -5.62400         1.15450         0.65870
C          -6.31050         0.03240         1.11650
H          -6.12780        -1.93990         1.93950
H          -3.65520        -1.90990         1.95840
H          -2.44340         0.06730         1.14350
H          -6.18760         2.00740         0.31040
H          -7.39070         0.01760         1.11100
C          10.52300         2.46570         2.43990
C          10.61880         2.44440         1.05140
C           9.63690         3.06520         0.28310
C           8.55320         3.71310         0.89180
C           8.47580         3.72400         2.29120
C           9.45430         3.10330         3.06380
H          11.28340         1.98380         3.03780
H          11.45200         1.95130         0.57170
H           9.72960         3.05310        -0.79290
H           7.64460         4.20340         2.78710
H           9.38210         3.11390         4.14180

