%chk=yamamoto_OPLS3e_2_opt_hess.chk
%nprocshared=12
%mem=48GB
# m062x 6-31g(d) scrf=(iefpcm,solvent=benzene) opt=(calcfc,maxcycles=50,maxstep=10) freq=noraman

 Structure1518

1  1
C          -1.19420        -1.05790        -1.64180
N          -0.14670        -1.18100        -0.63540
C           1.08940        -1.44530        -1.36950
C           0.64780        -2.34220        -2.53370
C          -0.86110        -2.13060        -2.67160
H          -2.17430        -1.23200        -1.18900
H          -1.22340        -0.06360        -2.09480
C           1.78900        -0.13060        -1.80280
H           1.74100        -2.00830        -0.69770
H           1.16740        -2.09030        -3.46000
H           0.89090        -3.38760        -2.33300
H          -1.41460        -3.04930        -2.46640
H          -1.14220        -1.81400        -3.67770
H           1.21480         0.35780        -2.59300
H           2.81510        -0.27110        -2.14950
N           1.80070         0.86110        -0.61130
C           2.03880         2.33830        -0.98880
C           3.55980         2.50930        -0.90760
C           4.08130         1.41940         0.04430
C           2.87440         0.56780         0.45880
H           1.50350         2.92030        -0.23220
H           1.58210         2.57800        -1.95330
H           4.00980         2.41480        -1.89900
H           3.81750         3.51020        -0.55080
H           4.55880         1.85580         0.92580
H           4.84330         0.80260        -0.43870
H           2.43190         0.89280         1.40530
H           3.05380        -0.50720         0.54780
H           0.86780         0.70520        -0.22290
H          -0.36740        -1.99740        -0.06850

