%chk=TS-68_opt_sqm_freq.chk
%nprocshared=12
%mem=48GB
# wb97xd def2svp scrf=(iefpcm,solvent=toluene) freq=noraman

 TS-68_opt_sqm.out

0  1
C          -0.81401         0.04609         0.12775
C          -2.03855         0.62238         0.58812
O          -2.21096         1.82311         0.79480
C           0.29175         0.91313        -0.10278
C          -0.96588         1.85264        -2.26977
H          -0.89611         2.20530        -3.30689
H          -1.60801         0.96474        -2.21874
H          -1.39915         2.62462        -1.62366
N           0.35669         1.48770        -1.75413
H           0.77629         0.74949        -2.32327
H           1.00681         2.27629        -1.77832
C           1.71684         0.51014         0.16314
C           2.38826        -0.47202        -0.57689
C           3.70807        -0.80761        -0.27975
C           4.37663        -0.17210         0.76569
C           3.71805         0.80572         1.51009
C           2.40180         1.14683         1.20570
H           1.87426        -1.00069        -1.38281
H           4.21406        -1.57768        -0.86604
H           5.40939        -0.43902         0.99984
H           4.23218         1.30963         2.33135
H           1.89110         1.91422         1.79305
H           0.05669         1.87216         0.37578
Br         -0.72957        -1.80544        -0.31845
O          -3.03686        -0.26566         0.79584
C          -4.25089         0.26305         1.28076
H          -4.94306        -0.58347         1.36705
H          -4.11922         0.73571         2.26609
H          -4.66678         1.01601         0.59395

