%chk=berkessel_OPLS3e_1_freq.chk
%nprocshared=12
%mem=48GB
# m062x 6-31g(d) scrf=(iefpcm,solvent=benzene) freq=noraman

 Structure1

0  1
C           2.52980        -0.16940         0.97970
C           2.56970         0.57950         2.16140
C           1.88100         0.11150         3.28700
C           1.16200        -1.08970         3.24160
C           1.13460        -1.82470         2.04940
C           1.81590        -1.36640         0.91170
H           3.04870         0.18720         0.10120
C           3.35810         1.88770         2.22100
H           1.90240         0.68730         4.20350
C           0.41970        -1.59910         4.47770
H           0.58360        -2.75430         2.01930
N           1.85670        -2.04870        -0.31430
F          -0.84650        -1.18930         4.42150
F           0.43740        -2.93150         4.53500
F           0.96620        -1.12850         5.60050
F           3.82680         2.11420         3.44910
F           4.39190         1.86640         1.37720
F           2.55350         2.89290         1.88020
H           2.50600        -1.70700        -1.02100
C           1.06940        -3.03250        -0.76890
O           0.08220        -3.47520        -0.19550
N           1.38500        -3.46390        -1.99350
H           0.61530        -3.96420        -2.40750
C           4.39040        -5.72000        -2.96580
C           3.12970        -5.26640        -2.20460
C           2.71650        -3.81050        -2.52860
C           3.91140        -2.79920        -2.38120
C           5.14160        -3.29490        -3.18720
C           5.55440        -4.73020        -2.80750
H           4.15240        -5.83120        -4.02540
H           4.69440        -6.71070        -2.62300
H           3.30940        -5.35300        -1.13120
H           2.30980        -5.95150        -2.42840
H           2.50570        -3.82780        -3.59900
N           3.56040        -1.37700        -2.56930
H           4.19890        -2.89170        -1.33080
H           4.93350        -3.23940        -4.25580
H           5.99780        -2.64550        -3.01010
H           5.90770        -4.74730        -1.77460
H           6.39950        -5.04990        -3.41970
C           4.63310        -0.45330        -2.18870
C           3.06170        -1.05010        -3.90820
H           4.26550         0.57430        -2.16460
H           5.01660        -0.68040        -1.19230
H           5.47170        -0.48170        -2.88660
H           2.75080        -0.00500        -3.96130
H           3.81810        -1.21060        -4.67820
H           2.18550        -1.64660        -4.16450

