%chk=gobel_OPLS3e_1_freq.chk
%nprocshared=12
%mem=48GB
# m062x 6-31g(d) scrf=(iefpcm,solvent=benzene) freq=noraman

 Structure1516

0  1
C           7.13560         5.93630         3.95820
C           7.61560         6.16060         5.24650
C           6.98640         5.61290         6.36700
C           5.85320         4.81600         6.18040
H           7.65020         6.36100         3.10800
H           8.50370         6.76160         5.38330
H           5.36770         4.37710         7.04000
C           5.33010         4.57150         4.88690
C           5.98130         5.14460         3.75660
C           5.45770         4.90170         2.46600
C           4.30070         4.13930         2.29840
C           3.65890         3.57200         3.40630
C           4.18170         3.77040         4.68590
H           5.96500         5.30880         1.60450
O           3.75850         3.96150         1.04620
H           3.70080         3.31710         5.54150
C           0.25430         0.97220         3.04740
C           1.55730         0.51060         2.96770
C           2.61530         1.39590         3.07270
C           2.41880         2.76660         3.25010
H          -0.56460         0.26890         2.97650
H           1.75500        -0.54430         2.83150
H           3.62360         1.00580         3.01780
C           1.06720         3.30170         3.29480
C          -0.01270         2.35220         3.21370
C          -1.35520         2.78530         3.29930
C          -1.65620         4.12700         3.45980
C          -0.64300         5.06820         3.51590
C           0.71000         4.70770         3.42150
H          -2.15280         2.05670         3.24080
H          -2.69010         4.44080         3.52410
H          -0.93930         6.10640         3.61150
C           1.66690         5.80370         3.41790
N           1.94110         6.34670         4.58210
H           2.74020         6.94390         4.70940
N           2.19820         6.25940         2.28850
H           1.49680         5.92340         5.38110
H           2.88840         6.97680         2.41810
C           2.02620         5.72510         0.91720
C           1.44600         6.81740         0.00430
C           3.34180         5.13260         0.34200
H           1.30480         4.90200         0.94310
H           2.12020         7.66860        -0.10350
H           1.25270         6.43110        -0.99850
H           0.49400         7.19410         0.38230
H           4.13350         5.88170         0.28620
H           3.17200         4.81710        -0.68920
C           8.52210         6.33770        10.33510
C           7.18770         6.60180        10.04320
C           6.68980         6.37010         8.76320
C           7.51810         5.86700         7.74220
C           8.86500         5.60860         8.06000
C           9.35870         5.84110         9.34100
H           8.90810         6.51750        11.32890
H           6.54930         6.98900        10.82330
O           5.37050         6.66670         8.54450
O           9.73740         5.10900         7.13210
H          10.39310         5.63850         9.57680
H           4.97840         7.04150         9.33500
H          10.59560         4.91400         7.51200

