%chk=sasai_OPLS3e_1_freq.chk
%nprocshared=12
%mem=48GB
# m062x 6-31g(d) scrf=(iefpcm,solvent=benzene) freq=noraman

 Structure1

0  1
C          -1.11320        -1.07140         0.30360
C          -3.23210        -2.93340         0.51750
C          -2.33850        -2.75120         1.56550
C          -1.30020        -1.83920         1.46180
H          -4.03700        -3.64900         0.60880
H          -2.44560        -3.32480         2.47430
O          -0.45070        -1.71150         2.52590
C          -2.03070        -1.23410        -0.78720
C          -3.09650        -2.18260        -0.67270
C          -3.99920        -2.35410        -1.75240
C          -3.85690        -1.60610        -2.91720
C          -2.83110        -0.67710        -3.03680
C          -1.92950        -0.48340        -1.99460
H          -4.80290        -3.07140        -1.66590
H          -4.55030        -1.74440        -3.73460
H          -2.73210        -0.09810        -3.94440
H          -1.14480         0.25160        -2.10890
C           2.22970         1.64440        -0.05000
C           0.04160        -0.11860         0.20850
C           1.13830        -0.43260        -0.60950
C           2.21550         0.44380        -0.75820
H           3.06250         2.32370        -0.16900
O           1.13710        -1.62580        -1.28690
C           3.38980         0.10620        -1.68390
C           1.16050         2.00240         0.79880
C           0.04460         1.11920         0.92960
C          -1.03010         1.52090         1.77430
C          -0.98770         2.73010         2.46280
C           0.10650         3.57600         2.33400
C           1.17320         3.22750         1.51170
H          -1.89490         0.88240         1.88310
H          -1.81340         3.01510         3.09940
H           0.12470         4.51320         2.87180
H           2.01730         3.89440         1.40830
H           0.19470        -1.02130         2.34950
H           0.30960        -2.08800        -1.11890
N           3.74050         1.21860        -2.58570
H           4.24050        -0.16270        -1.05520
H           3.17620        -0.78300        -2.27980
C           5.13050         1.25740        -3.04780
C           0.85810         2.70030        -5.24710
C           1.98860         3.47420        -4.98590
C           2.94650         2.97310        -4.10100
C           2.77110         1.72080        -3.49450
C           1.59610         1.02300        -3.82210
N           0.64990         1.48750        -4.67900
H           0.09000         3.05020        -5.92200
H           3.80980         3.57440        -3.86820
H           1.39340         0.05090        -3.40520
H           5.82550         1.00830        -2.24440
H           5.42190         2.23500        -3.43120
H           5.27990         0.54260        -3.85920
H           2.11830         4.44160        -5.44790

